6q39
     RDKit          3D

 54 55  0  0  0  0  0  0  0  0999 V2000
   35.2850   85.4540   71.1400 C   0  0  0  0  0  0  0  0  0  0  0  0
   33.9470   88.6520   71.6090 C   0  0  0  0  0  0  0  0  0  0  0  0
   37.6130   86.6890   66.3040 B   0  0  0  0  0  4  0  0  0  0  0  0
   33.5700   87.1970   71.3910 C   0  0  1  0  0  0  0  0  0  0  0  0
   34.6700   84.0690   72.9670 C   0  0  0  0  0  0  0  0  0  0  0  0
   33.7130   83.7980   74.1170 C   0  0  2  0  0  0  0  0  0  0  0  0
   31.4940   82.6780   74.5440 C   0  0  0  0  0  0  0  0  0  0  0  0
   34.4600   86.4860   70.3750 C   0  0  1  0  0  0  0  0  0  0  0  0
   32.0460   82.5370   75.9580 C   0  0  0  0  0  0  0  0  0  0  0  0
   33.4640   81.9840   75.9180 C   0  0  0  0  0  0  0  0  0  0  0  0
   34.4120   82.8790   75.1180 C   0  0  0  0  0  0  0  0  0  0  0  0
   35.4240   87.3350   69.5630 C   0  0  0  0  0  0  0  0  0  0  0  0
   36.1260   86.5080   68.4680 C   0  0  0  0  0  0  0  0  0  0  0  0
   36.9070   87.4410   67.5220 C   0  0  0  0  0  0  0  0  0  0  0  0
   33.6880   86.3760   72.6900 C   0  0  0  0  0  0  0  0  0  0  0  0
   34.8520   85.4760   72.5470 N   0  0  2  0  0  4  0  0  0  0  0  0
   32.1750   87.1360   70.9180 N   0  0  0  0  0  4  0  0  0  0  0  0
   32.4950   83.1790   73.6120 N   0  0  0  0  0  4  0  0  0  0  0  0
   35.0430   88.9480   72.1660 O   0  0  0  0  0  0  0  0  0  0  0  0
   33.1230   89.5330   71.2230 O   0  0  0  0  0  1  0  0  0  0  0  0
   38.0620   87.5210   65.1250 O   0  0  0  0  0  0  0  0  0  0  0  0
   36.4640   85.9580   65.5550 O   0  0  0  0  0  0  0  0  0  0  0  0
   38.5250   85.5600   66.7120 O   0  0  0  0  0  0  0  0  0  0  0  0
   35.1210   84.4630   70.7180 H   0  0  0  0  0  0  0  0  0  0  0  0
   36.3440   85.7100   71.0770 H   0  0  0  0  0  0  0  0  0  0  0  0
   35.6480   83.6860   73.2590 H   0  0  0  0  0  0  0  0  0  0  0  0
   34.3300   83.4990   72.1030 H   0  0  0  0  0  0  0  0  0  0  0  0
   33.4620   84.7390   74.6060 H   0  0  0  0  0  0  0  0  0  0  0  0
   31.1540   81.7010   74.2010 H   0  0  0  0  0  0  0  0  0  0  0  0
   30.6470   83.3640   74.5590 H   0  0  0  0  0  0  0  0  0  0  0  0
   33.8150   85.9510   69.6780 H   0  0  0  0  0  0  0  0  0  0  0  0
   32.0550   83.5150   76.4390 H   0  0  0  0  0  0  0  0  0  0  0  0
   31.4100   81.8610   76.5280 H   0  0  0  0  0  0  0  0  0  0  0  0
   33.4430   80.9960   75.4580 H   0  0  0  0  0  0  0  0  0  0  0  0
   33.8390   81.8930   76.9380 H   0  0  0  0  0  0  0  0  0  0  0  0
   34.9700   83.4990   75.8200 H   0  0  0  0  0  0  0  0  0  0  0  0
   35.1160   82.2460   74.5780 H   0  0  0  0  0  0  0  0  0  0  0  0
   36.1790   87.7510   70.2310 H   0  0  0  0  0  0  0  0  0  0  0  0
   34.8740   88.1520   69.0950 H   0  0  0  0  0  0  0  0  0  0  0  0
   36.8180   85.8060   68.9340 H   0  0  0  0  0  0  0  0  0  0  0  0
   35.3790   85.9560   67.8970 H   0  0  0  0  0  0  0  0  0  0  0  0
   37.6760   87.9510   68.1020 H   0  0  0  0  0  0  0  0  0  0  0  0
   36.2200   88.1860   67.1210 H   0  0  0  0  0  0  0  0  0  0  0  0
   33.8370   87.0440   73.5380 H   0  0  0  0  0  0  0  0  0  0  0  0
   32.7820   85.7880   72.8380 H   0  0  0  0  0  0  0  0  0  0  0  0
   35.6080   85.8640   73.0940 H   0  0  0  0  0  0  0  0  0  0  0  0
   32.0360   83.8680   73.0340 H   0  0  0  0  0  0  0  0  0  0  0  0
   32.7670   82.4120   73.0150 H   0  0  0  0  0  0  0  0  0  0  0  0
   31.5490   87.3260   71.6880 H   0  0  0  0  0  0  0  0  0  0  0  0
   31.9860   86.2160   70.5480 H   0  0  0  0  0  0  0  0  0  0  0  0
   32.0350   87.8260   70.1930 H   0  0  0  0  0  0  0  0  0  0  0  0
   39.0150   87.4550   65.0310 H   0  0  0  0  0  0  0  0  0  0  0  0
   35.6180   86.2800   65.8750 H   0  0  0  0  0  0  0  0  0  0  0  0
   38.9100   85.1590   65.9290 H   0  0  0  0  0  0  0  0  0  0  0  0
  3 14  1  0
  3 21  1  0
  3 22  1  0
  3 23  1  0
  4  2  1  0
  4  8  1  0
  4 15  1  0
  4 17  1  6
  1  8  1  0
  1 16  1  0
  1 24  1  0
  1 25  1  0
  2 19  2  0
  2 20  1  0
  5  6  1  0
  5 16  1  0
  5 26  1  0
  5 27  1  0
  6 11  1  0
  6 18  1  0
  6 28  1  1
  7  9  1  0
  7 18  1  0
  7 29  1  0
  7 30  1  0
  8 12  1  0
  8 31  1  6
  9 10  1  0
  9 32  1  0
  9 33  1  0
 10 11  1  0
 10 34  1  0
 10 35  1  0
 11 36  1  0
 11 37  1  0
 12 13  1  0
 12 38  1  0
 12 39  1  0
 13 14  1  0
 13 40  1  0
 13 41  1  0
 14 42  1  0
 14 43  1  0
 15 16  1  0
 15 44  1  0
 15 45  1  0
 16 46  1  1
 17 49  1  0
 50 17  1  0
 51 17  1  0
 18 47  1  0
 48 18  1  0
 52 21  1  0
 53 22  1  0
 54 23  1  0
M  CHG  5   3  -1  16   1  17   1  18   1  20  -1
M  END
