6rvk_R29_ligand
     RDKit          3D

 38 40  0  0  0  0  0  0  0  0999 V2000
   -5.0250    2.2620   15.7990 C   0  0  0  0  0  0  0  0  0  0  0  0
   -3.8390    2.7780   15.2230 C   0  0  0  0  0  0  0  0  0  0  0  0
   -3.7960    4.0640   14.6420 C   0  0  0  0  0  0  0  0  0  0  0  0
   -4.9470    4.8500   14.6270 C   0  0  0  0  0  0  0  0  0  0  0  0
   -6.1130    4.3750   15.1870 C   0  0  0  0  0  0  0  0  0  0  0  0
   -6.1450    3.1100   15.7670 C   0  0  0  0  0  0  0  0  0  0  0  0
   -7.2810    2.4230   16.4330 C   0  0  2  0  0  0  0  0  0  0  0  0
   -2.5000    5.7810   13.3520 C   0  0  0  0  0  0  0  0  0  0  0  0
   -0.9380    7.2390   12.1320 C   0  0  2  0  0  0  0  0  0  0  0  0
   -1.0720    8.5900   12.7980 C   0  0  0  0  0  0  0  0  0  0  0  0
   -1.8320    9.5950   12.2080 C   0  0  0  0  0  0  0  0  0  0  0  0
   -1.9510   10.8450   12.8010 C   0  0  0  0  0  0  0  0  0  0  0  0
   -1.3090   11.1080   13.9970 C   0  0  0  0  0  0  0  0  0  0  0  0
   -0.5500   10.1210   14.5970 C   0  0  0  0  0  0  0  0  0  0  0  0
   -0.4310    8.8720   14.0020 C   0  0  0  0  0  0  0  0  0  0  0  0
   -6.9180    1.0620   16.3380 O   0  0  0  0  0  0  0  0  0  0  0  0
   -5.2520    0.7830   17.9910 O   0  0  0  0  0  0  0  0  0  0  0  0
   -3.4550    6.4830   13.0210 O   0  0  0  0  0  0  0  0  0  0  0  0
   -2.6130    4.6110   14.0770 N   0  0  0  0  0  0  0  0  0  0  0  0
   -1.2390    6.0860   12.9740 N   0  0  0  0  0  0  0  0  0  0  0  0
   -5.4690    0.8620   16.5400 B   0  0  2  0  0  0  0  0  0  0  0  0
   -5.1070   -0.4360   15.9330 O   0  0  0  0  0  0  0  0  0  0  0  0
   -2.9450    2.1720   15.2290 H   0  0  0  0  0  0  0  0  0  0  0  0
   -4.9260    5.8310   14.1760 H   0  0  0  0  0  0  0  0  0  0  0  0
   -7.0040    4.9850   15.1770 H   0  0  0  0  0  0  0  0  0  0  0  0
   -8.2190    2.6180   15.9120 H   0  0  0  0  0  0  0  0  0  0  0  0
   -7.3530    2.7280   17.4770 H   0  0  0  0  0  0  0  0  0  0  0  0
    0.0900    7.1390   11.7820 H   0  0  0  0  0  0  0  0  0  0  0  0
   -1.5990    7.2150   11.2660 H   0  0  0  0  0  0  0  0  0  0  0  0
   -2.3380    9.4000   11.2740 H   0  0  0  0  0  0  0  0  0  0  0  0
   -2.5450   11.6130   12.3280 H   0  0  0  0  0  0  0  0  0  0  0  0
   -1.4000   12.0800   14.4600 H   0  0  0  0  0  0  0  0  0  0  0  0
   -0.0480   10.3220   15.5310 H   0  0  0  0  0  0  0  0  0  0  0  0
    0.1660    8.1080   14.4790 H   0  0  0  0  0  0  0  0  0  0  0  0
   -1.7620    4.0870   14.2200 H   0  0  0  0  0  0  0  0  0  0  0  0
   -0.4800    5.4960   13.2860 H   0  0  0  0  0  0  0  0  0  0  0  0
   -4.6580   -0.9790   16.5850 H   0  0  0  0  0  0  0  0  0  0  0  0
   -5.7890    0.0760   18.3570 H   0  0  0  0  0  0  0  0  0  0  0  0
 21  1  1  0
 21 16  1  0
 21 17  1  1
 21 22  1  0
  1  2  2  0
  1  6  1  0
 10  9  1  0
 10 11  2  0
 10 15  1  0
 11 12  1  0
 11 30  1  0
 12 13  2  0
 12 31  1  0
 13 14  1  0
 13 32  1  0
 14 15  2  0
 14 33  1  0
 15 34  1  0
  2  3  1  0
  2 23  1  0
  3  4  2  0
  3 19  1  0
  4  5  1  0
  4 24  1  0
  5  6  2  0
  5 25  1  0
  6  7  1  0
  7 16  1  0
  7 26  1  6
  7 27  1  0
  8 18  2  0
  8 19  1  0
  8 20  1  0
  9 20  1  0
  9 28  1  6
  9 29  1  0
 35 19  1  0
 36 20  1  0
 37 22  1  0
 38 17  1  0
M  CHG  1  21  -1
M  END
