7k4h_VV4_ligand
     RDKit          3D

 39 40  0  0  0  0  0  0  0  0999 V2000
  -21.2100   17.1430  -12.0010 C   0  0  1  0  0  0  0  0  0  0  0  0
  -20.7430   18.3600  -11.1750 C   0  0  2  0  0  0  0  0  0  0  0  0
  -21.6230   19.5880  -11.3490 C   0  0  1  0  0  0  0  0  0  0  0  0
  -26.7450   11.7300  -12.4630 O   0  0  0  0  0  0  0  0  0  0  0  0
  -23.2340   15.3580  -12.1930 C   0  0  2  0  0  0  0  0  0  0  0  0
  -24.6610   14.9130  -11.8870 C   0  0  1  0  0  0  0  0  0  0  0  0
  -24.9080   13.4470  -12.2340 C   0  0  2  0  0  0  0  0  0  0  0  0
  -20.1860   15.3540  -10.6740 O   0  0  0  0  0  0  0  0  0  0  0  0
  -20.2330   15.9710  -11.7250 C   0  0  0  0  0  0  0  0  0  0  0  0
  -19.4560   15.7100  -12.7380 O   0  0  0  0  0  0  0  0  0  0  0  0
  -22.7220   16.7160  -11.6700 C   0  0  2  0  0  0  0  0  0  0  0  0
  -23.3330   17.9740  -12.3220 C   0  0  2  0  0  0  0  0  0  0  0  0
  -22.7250   18.0340  -13.7750 C   0  0  2  0  0  0  0  0  0  0  0  0
  -21.3440   17.4880  -13.5050 N   0  0  2  0  0  0  0  0  0  0  0  0
  -23.0690   19.1910  -11.4740 N   0  0  1  0  0  0  0  0  0  0  0  0
  -26.4370   13.1590  -12.4370 B   0  0  1  0  0  0  0  0  0  0  0  0
  -26.9500   13.6730  -13.7210 O   0  0  0  0  0  0  0  0  0  0  0  0
  -27.2960   13.7110  -11.3650 O   0  0  0  0  0  0  0  0  0  0  0  0
  -19.7300   18.6160  -11.4820 H   0  0  0  0  0  0  0  0  0  0  0  0
  -20.7310   18.0840  -10.1210 H   0  0  0  0  0  0  0  0  0  0  0  0
  -21.5040   20.2390  -10.4820 H   0  0  0  0  0  0  0  0  0  0  0  0
  -21.3180   20.1260  -12.2470 H   0  0  0  0  0  0  0  0  0  0  0  0
  -23.1370   15.3810  -13.2780 H   0  0  0  0  0  0  0  0  0  0  0  0
  -22.5610   14.5860  -11.8190 H   0  0  0  0  0  0  0  0  0  0  0  0
  -24.8500   15.0560  -10.8230 H   0  0  0  0  0  0  0  0  0  0  0  0
  -25.3540   15.5330  -12.4550 H   0  0  0  0  0  0  0  0  0  0  0  0
  -24.5340   12.8210  -11.4230 H   0  0  0  0  0  0  0  0  0  0  0  0
  -24.3730   13.2010  -13.1510 H   0  0  0  0  0  0  0  0  0  0  0  0
  -22.8780   16.7640  -10.5920 H   0  0  0  0  0  0  0  0  0  0  0  0
  -24.4110   17.8340  -12.4030 H   0  0  0  0  0  0  0  0  0  0  0  0
  -22.6890   19.0540  -14.1570 H   0  0  0  0  0  0  0  0  0  0  0  0
  -23.2750   17.3820  -14.4550 H   0  0  0  0  0  0  0  0  0  0  0  0
  -21.1980   16.6540  -14.0550 H   0  0  0  0  0  0  0  0  0  0  0  0
  -20.6530   18.1810  -13.7540 H   0  0  0  0  0  0  0  0  0  0  0  0
  -23.4230   19.0060  -10.5460 H   0  0  0  0  0  0  0  0  0  0  0  0
  -23.5820   19.9690  -11.8630 H   0  0  0  0  0  0  0  0  0  0  0  0
  -27.2980   11.5080  -11.7110 H   0  0  0  0  0  0  0  0  0  0  0  0
  -26.7830   14.3160  -10.8230 H   0  0  0  0  0  0  0  0  0  0  0  0
  -26.2240   14.0360  -14.2340 H   0  0  0  0  0  0  0  0  0  0  0  0
 16  4  1  6
 16  7  1  0
 16 17  1  0
 16 18  1  0
  1  9  1  6
  9  8  1  0
  9 10  2  0
  1  2  1  0
  1 11  1  0
  1 14  1  0
  2  3  1  0
  2 19  1  6
  2 20  1  0
  3 15  1  0
  3 21  1  1
  3 22  1  0
 13 12  1  0
 13 14  1  0
 13 31  1  6
 13 32  1  0
 12 11  1  0
 12 15  1  0
 12 30  1  6
 11  5  1  0
 11 29  1  1
  5  6  1  0
  5 23  1  6
  5 24  1  0
  6  7  1  0
  6 25  1  1
  6 26  1  0
  7 27  1  1
  7 28  1  0
 14 33  1  6
 34 14  1  0
 15 35  1  1
 36 15  1  0
 38 18  1  0
 39 17  1  0
 37  4  1  0
M  CHG  4   8  -1  14   1  15   1  16  -1
M  END
