5u4e
     RDKit          3D

 32 33  0  0  0  0  0  0  0  0999 V2000
  -21.5100    1.6420  -21.5420 C   0  0  0  0  0  0  0  0  0  0  0  0
  -21.8980    0.3260  -21.7230 C   0  0  0  0  0  0  0  0  0  0  0  0
  -22.2240   -0.1390  -22.9870 C   0  0  0  0  0  0  0  0  0  0  0  0
  -22.1440    0.7170  -24.0760 C   0  0  0  0  0  0  0  0  0  0  0  0
  -21.7660    2.0360  -23.8900 C   0  0  0  0  0  0  0  0  0  0  0  0
  -21.4420    2.4980  -22.6250 C   0  0  0  0  0  0  0  0  0  0  0  0
  -22.5140    0.2480  -25.4680 C   0  0  0  0  0  0  0  0  0  0  0  0
  -21.7440    0.1130  -26.5620 C   0  0  0  0  0  0  0  0  0  0  0  0
  -22.2130   -0.3320  -27.9430 C   0  0  0  0  0  0  0  0  0  0  0  0
  -23.2350   -1.2540  -28.1730 C   0  0  0  0  0  0  0  0  0  0  0  0
  -23.6050   -1.5900  -29.4650 C   0  0  0  0  0  0  0  0  0  0  0  0
  -22.9690   -1.0120  -30.5460 C   0  0  0  0  0  0  0  0  0  0  0  0
  -21.9600   -0.0900  -30.3310 C   0  0  0  0  0  0  0  0  0  0  0  0
  -21.5880    0.2470  -29.0380 C   0  0  0  0  0  0  0  0  0  0  0  0
  -21.9700   -0.5930  -20.5260 C   0  0  0  0  0  0  0  0  0  0  0  0
  -24.7440   -1.0920  -32.5280 O   0  0  0  0  0  0  0  0  0  0  0  0
  -22.5290   -2.1300  -32.9260 O   0  0  0  0  0  0  0  0  0  0  0  0
  -21.5360   -0.2010  -19.4120 O   0  0  0  0  0  0  0  0  0  0  0  0
  -22.4670   -1.7420  -20.6390 O   0  0  0  0  0  0  0  0  0  0  0  0
  -24.1040   -2.0510  -26.8970 Cl  0  0  0  0  0  0  0  0  0  0  0  0
  -23.4330   -1.4310  -32.0720 B   0  0  0  0  0  0  0  0  0  0  0  0
  -21.2600    1.9990  -20.5540 H   0  0  0  0  0  0  0  0  0  0  0  0
  -22.5380   -1.1630  -23.1240 H   0  0  0  0  0  0  0  0  0  0  0  0
  -21.7230    2.7080  -24.7350 H   0  0  0  0  0  0  0  0  0  0  0  0
  -21.1380    3.5250  -22.4860 H   0  0  0  0  0  0  0  0  0  0  0  0
  -23.5520   -0.0180  -25.6020 H   0  0  0  0  0  0  0  0  0  0  0  0
  -20.6950    0.3410  -26.4520 H   0  0  0  0  0  0  0  0  0  0  0  0
  -24.3950   -2.3080  -29.6280 H   0  0  0  0  0  0  0  0  0  0  0  0
  -21.4610    0.3690  -31.1720 H   0  0  0  0  0  0  0  0  0  0  0  0
  -20.8020    0.9700  -28.8810 H   0  0  0  0  0  0  0  0  0  0  0  0
  -25.3890   -1.3490  -31.8660 H   0  0  0  0  0  0  0  0  0  0  0  0
  -21.7410   -1.5990  -33.0610 H   0  0  0  0  0  0  0  0  0  0  0  0
 21 12  1  0
 21 16  1  0
 21 17  1  0
  1  2  2  0
  1  6  1  0
  1 22  1  0
  2  3  1  0
  2 15  1  0
  3  4  2  0
  3 23  1  0
  4  5  1  0
  4  7  1  0
  5  6  2  0
  5 24  1  0
  6 25  1  0
  7  8  2  3
  7 26  1  0
  8  9  1  0
  8 27  1  0
  9 10  2  0
  9 14  1  0
 10 11  1  0
 10 20  1  0
 11 12  2  0
 11 28  1  0
 12 13  1  0
 13 14  2  0
 13 29  1  0
 14 30  1  0
 15 18  2  0
 15 19  1  0
 32 17  1  0
 31 16  1  0
M  END
