REMARK  12 active torsions:
REMARK  status: ('A' for Active; 'I' for Inactive)
REMARK       I    between atoms: C5_1  and  N4_29 
REMARK    1  A    between atoms: C5_1  and  O6_34 
REMARK    2  A    between atoms: C20_6  and  C21_7 
REMARK       I    between atoms: C21_7  and  N22_27 
REMARK    3  A    between atoms: C23_17  and  C24_8 
REMARK    4  A    between atoms: C24_8  and  C25_18 
REMARK    5  A    between atoms: C25_18  and  C26_9 
REMARK    6  A    between atoms: C2_16  and  C3_21 
REMARK       I    between atoms: C2_16  and  N13_26 
REMARK    7  A    between atoms: C23_17  and  C29_20 
REMARK    8  A    between atoms: C23_17  and  N22_27 
REMARK    9  A    between atoms: C29_20  and  C31_22 
REMARK   10  A    between atoms: C29_20  and  O30_31 
REMARK   11  A    between atoms: C3_21  and  C9_24 
REMARK   12  A    between atoms: C3_21  and  N4_29 
REMARK       I    between atoms: C31_22  and  N32_28 
ROOT
HETATM    1  C15 X8F A 401     -20.907  14.409 -27.138  1.00 19.30     0.010 C 
HETATM    2  C17 X8F A 401     -19.248  14.552 -28.908  1.00 22.94     0.007 C 
HETATM    3  C20 X8F A 401     -19.283  16.265 -26.997  1.00 15.73     0.183 C 
HETATM    4  C14 X8F A 401     -21.118  15.138 -25.815  1.00 18.04     0.132 C 
HETATM    5  C16 X8F A 401     -20.102  15.418 -27.984  1.00 17.11     0.023 C 
HETATM    6  C18 X8F A 401     -18.862  13.383 -28.040  1.00 24.78     0.001 C 
HETATM    7  C19 X8F A 401     -20.034  13.147 -27.065  1.00 23.23     0.007 C 
HETATM    8  C2  X8F A 401     -19.494  16.595 -24.608  1.00 16.28     0.244 C 
HETATM    9  N13 X8F A 401     -19.948  16.019 -25.724  1.00 15.09    -0.336 N 
HETATM   10  O1  X8F A 401     -18.425  17.193 -24.588  1.00 16.23    -0.271 OA
ENDROOT
BRANCH   3  11
HETATM   11  C21 X8F A 401     -19.432  17.744 -27.354  1.00 15.92     0.241 C 
HETATM   12  N22 X8F A 401     -18.311  18.370 -27.718  1.00 18.20    -0.351 N 
HETATM   13  H22 X8F A 401     -17.479  18.197 -27.163  1.00 21.77     0.163 HD
HETATM   14  O35 X8F A 401     -20.477  18.344 -27.120  1.00 17.80    -0.271 OA
BRANCH  12  15
HETATM   15  C23 X8F A 401     -18.295  19.603 -28.494  1.00 16.79     0.132 C 
BRANCH  15  16
HETATM   16  C24 X8F A 401     -17.388  20.615 -27.791  1.00 17.29     0.032 C 
BRANCH  16  17
HETATM   17  C25 X8F A 401     -17.920  20.771 -26.358  1.00 19.23     0.039 C 
BRANCH  17  18
HETATM   18  C26 X8F A 401     -16.950  21.409 -25.397  1.00 18.56     0.166 C 
HETATM   19  C27 X8F A 401     -16.625  22.833 -25.732  1.00 19.93     0.045 C 
HETATM   20  F28 X8F A 401     -15.748  20.667 -25.415  1.00 18.09    -0.250 F 
ENDBRANCH  17  18
ENDBRANCH  16  17
ENDBRANCH  15  16
BRANCH  15  21
HETATM   21  C29 X8F A 401     -18.019  19.463 -30.009  1.00 14.97     0.201 C 
BRANCH  21  22
HETATM   22  C31 X8F A 401     -18.417  20.710 -30.797  1.00 16.87     0.257 C 
HETATM   23  N32 X8F A 401     -19.429  20.577 -31.654  1.00 18.25    -0.363 N 
HETATM   24  C33 X8F A 401     -19.904  21.683 -32.470  1.00 24.58     0.149 C 
HETATM   25  H32 X8F A 401     -19.867  19.663 -31.723  1.00 21.82     0.162 HD
HETATM   26  O34 X8F A 401     -17.819  21.769 -30.621  1.00 17.08    -0.270 OA
ENDBRANCH  21  22
BRANCH  21  27
HETATM   27  O30 X8F A 401     -18.787  18.358 -30.465  1.00 17.53    -0.375 OA
HETATM   28  H30 X8F A 401     -19.655  18.415 -30.031  1.00 20.96     0.211 HD
ENDBRANCH  21  27
ENDBRANCH  15  21
ENDBRANCH  12  15
ENDBRANCH   3  11
BRANCH   8  29
HETATM   29  C3  X8F A 401     -20.245  16.350 -23.298  1.00 15.23     0.186 C 
BRANCH  29  30
HETATM   30  C9  X8F A 401     -20.890  17.641 -22.707  1.00 17.60    -0.022 C 
HETATM   31  C10 X8F A 401     -21.741  17.361 -21.464  1.00 17.28     0.017 C 
HETATM   32  C11 X8F A 401     -21.783  18.237 -23.800  1.00 21.23     0.017 C 
HETATM   33  C12 X8F A 401     -19.810  18.659 -22.365  1.00 18.46     0.017 C 
ENDBRANCH  29  30
BRANCH  29  34
HETATM   34  N4  X8F A 401     -19.285  15.641 -22.476  1.00 16.63    -0.323 N 
HETATM   35  C5  X8F A 401     -19.594  14.506 -21.845  1.00 18.86     0.360 C 
HETATM   36  O8  X8F A 401     -20.578  13.843 -22.062  1.00 21.89    -0.239 OA
HETATM   37  H4  X8F A 401     -18.297  15.760 -22.673  1.00 19.89     0.165 HD
BRANCH  35  38
HETATM   38  O6  X8F A 401     -18.586  14.114 -21.074  1.00 20.56    -0.309 OA
HETATM   39  C7  X8F A 401     -18.790  12.850 -20.414  1.00 26.14     0.215 C 
ENDBRANCH  35  38
ENDBRANCH  29  34
ENDBRANCH   8  29
TORSDOF 12
