6ibs_HB8_ligand
     RDKit          3D

 38 39  0  0  0  0  0  0  0  0999 V2000
   -8.7360    0.7890  -18.5940 C   0  0  0  0  0  0  0  0  0  0  0  0
   -7.5550    0.1460  -17.9030 C   0  0  0  0  0  0  0  0  0  0  0  0
   -7.1580    0.6040  -16.5110 C   0  0  0  0  0  0  0  0  0  0  0  0
   -6.0250   -0.0080  -15.8420 N   0  0  0  0  0  0  0  0  0  0  0  0
   -4.8340    0.7770  -15.5730 C   0  0  0  0  0  0  0  0  0  0  0  0
   -4.9090    1.9560  -15.4870 O   0  0  0  0  0  0  0  0  0  0  0  0
   -3.5980    0.1410  -15.4170 O   0  0  0  0  0  0  0  0  0  0  0  0
   -2.7700    0.7370  -14.4600 C   0  0  2  0  0  0  0  0  0  0  0  0
   -2.2140    2.0470  -15.0130 C   0  0  1  0  0  0  0  0  0  0  0  0
   -1.6160   -0.2060  -14.1290 C   0  0  1  0  0  0  0  0  0  0  0  0
   -3.5770    1.0200  -13.1930 C   0  0  1  0  0  0  0  0  0  0  0  0
   -7.9590    1.7230  -15.8040 C   0  0  0  0  0  0  0  0  0  0  0  0
   -7.7970    2.3940  -14.4020 S   0  0  0  0  0  0  0  0  0  0  0  0
   -8.9160    3.4680  -14.2570 C   0  0  0  0  0  0  0  0  0  0  0  0
  -10.7970    4.6990  -12.7240 O   0  0  0  0  0  0  0  0  0  0  0  0
   -8.5290    3.7270  -11.5770 O   0  0  0  0  0  0  0  0  0  0  0  0
   -8.4070    5.9170  -13.1870 O   0  0  0  0  0  0  0  0  0  0  0  0
   -9.7110    3.4590  -15.4830 C   0  0  0  0  0  0  0  0  0  0  0  0
   -9.0980    2.3440  -16.4690 C   0  0  0  0  0  0  0  0  0  0  0  0
   -9.5140    1.8870  -17.8880 C   0  0  0  0  0  0  0  0  0  0  0  0
   -9.1620    4.4530  -12.9360 B   0  0  1  0  0  0  0  0  0  0  0  0
   -9.0280    0.4670  -19.5930 H   0  0  0  0  0  0  0  0  0  0  0  0
   -6.9910   -0.6420  -18.4020 H   0  0  0  0  0  0  0  0  0  0  0  0
  -10.5700    4.0960  -15.6930 H   0  0  0  0  0  0  0  0  0  0  0  0
  -10.3660    2.3540  -18.3820 H   0  0  0  0  0  0  0  0  0  0  0  0
   -6.0650   -0.9780  -15.5640 H   0  0  0  0  0  0  0  0  0  0  0  0
  -11.2750    4.3390  -13.4750 H   0  0  0  0  0  0  0  0  0  0  0  0
   -7.9440    4.3420  -11.1290 H   0  0  0  0  0  0  0  0  0  0  0  0
   -8.0130    5.9290  -14.0630 H   0  0  0  0  0  0  0  0  0  0  0  0
   -3.0380    2.7210  -15.2500 H   0  0  0  0  0  0  0  0  0  0  0  0
   -1.5680    2.5110  -14.2670 H   0  0  0  0  0  0  0  0  0  0  0  0
   -1.6390    1.8450  -15.9170 H   0  0  0  0  0  0  0  0  0  0  0  0
   -2.0120   -1.1410  -13.7340 H   0  0  0  0  0  0  0  0  0  0  0  0
   -1.0410   -0.4080  -15.0330 H   0  0  0  0  0  0  0  0  0  0  0  0
   -0.9700    0.2580  -13.3840 H   0  0  0  0  0  0  0  0  0  0  0  0
   -2.9030    1.0840  -12.3390 H   0  0  0  0  0  0  0  0  0  0  0  0
   -4.1110    1.9640  -13.3060 H   0  0  0  0  0  0  0  0  0  0  0  0
   -4.2930    0.2150  -13.0310 H   0  0  0  0  0  0  0  0  0  0  0  0
  1  2  2  0
  1 20  1  0
  1 22  1  0
  2  3  1  0
  2 23  1  0
  3  4  1  0
  3 12  2  0
  4  5  1  0
  4 26  1  0
  5  6  2  0
  5  7  1  0
  8  7  1  6
  8  9  1  0
  8 10  1  0
  8 11  1  0
  9 30  1  6
  9 31  1  0
  9 32  1  0
 10 33  1  1
 10 34  1  0
 10 35  1  0
 11 36  1  1
 11 37  1  0
 11 38  1  0
 12 13  1  0
 12 19  1  0
 13 14  1  0
 14 18  2  0
 14 21  1  0
 15 27  1  0
 21 15  1  1
 16 28  1  0
 16 21  1  0
 17 29  1  0
 17 21  1  0
 18 19  1  0
 18 24  1  0
 19 20  2  0
 20 25  1  0
M  CHG  1  21  -1
M  END
