6ibs
     RDKit          3D

 43 44  0  0  0  0  0  0  0  0999 V2000
   -8.7360    0.7890  -18.5940 C   0  0  0  0  0  0  0  0  0  0  0  0
   -7.5550    0.1460  -17.9030 C   0  0  0  0  0  0  0  0  0  0  0  0
   -7.1580    0.6040  -16.5110 C   0  0  0  0  0  3  0  0  0  0  0  0
   -6.0250   -0.0080  -15.8420 N   0  0  0  0  0  0  0  0  0  0  0  0
   -4.8340    0.7770  -15.5730 C   0  0  0  0  0  0  0  0  0  0  0  0
   -4.9090    1.9560  -15.4870 O   0  0  0  0  0  0  0  0  0  0  0  0
   -3.5980    0.1410  -15.4170 O   0  0  0  0  0  0  0  0  0  0  0  0
   -2.7700    0.7370  -14.4600 C   0  0  0  0  0  0  0  0  0  0  0  0
   -2.2140    2.0470  -15.0130 C   0  0  0  0  0  0  0  0  0  0  0  0
   -1.6160   -0.2060  -14.1290 C   0  0  0  0  0  0  0  0  0  0  0  0
   -3.5770    1.0200  -13.1930 C   0  0  0  0  0  0  0  0  0  0  0  0
   -7.9590    1.7230  -15.8040 C   0  0  0  0  0  3  0  0  0  0  0  0
   -7.7970    2.3940  -14.4020 S   0  0  0  0  0  0  0  0  0  0  0  0
   -8.9160    3.4680  -14.2570 C   0  0  0  0  0  0  0  0  0  0  0  0
   -9.1620    4.4530  -12.9360 B   0  0  0  0  0  4  0  0  0  0  0  0
  -10.7970    4.6990  -12.7240 O   0  0  0  0  0  0  0  0  0  0  0  0
   -8.5290    3.7270  -11.5770 O   0  0  0  0  0  0  0  0  0  0  0  0
   -8.4070    5.9170  -13.1870 O   0  0  0  0  0  0  0  0  0  0  0  0
   -9.7110    3.4590  -15.4830 C   0  0  0  0  0  0  0  0  0  0  0  0
   -9.0980    2.3440  -16.4690 C   0  0  0  0  0  3  0  0  0  0  0  0
   -9.5140    1.8870  -17.8880 C   0  0  0  0  0  0  0  0  0  0  0  0
   -8.3640    1.2140  -19.5260 H   0  0  0  0  0  0  0  0  0  0  0  0
   -9.4400   -0.0030  -18.8500 H   0  0  0  0  0  0  0  0  0  0  0  0
   -7.7700   -0.9200  -17.8350 H   0  0  0  0  0  0  0  0  0  0  0  0
   -6.6870    0.2670  -18.5510 H   0  0  0  0  0  0  0  0  0  0  0  0
   -6.0650   -0.9780  -15.5640 H   0  0  0  0  0  0  0  0  0  0  0  0
   -9.5780    2.7190  -13.8220 H   0  0  0  0  0  0  0  0  0  0  0  0
   -9.6660    4.4380  -15.9600 H   0  0  0  0  0  0  0  0  0  0  0  0
  -10.7460    3.2120  -15.2480 H   0  0  0  0  0  0  0  0  0  0  0  0
   -9.4650    2.7680  -18.5280 H   0  0  0  0  0  0  0  0  0  0  0  0
  -10.5570    1.5720  -17.8400 H   0  0  0  0  0  0  0  0  0  0  0  0
  -11.2750    4.3390  -13.4750 H   0  0  0  0  0  0  0  0  0  0  0  0
   -7.9440    4.3420  -11.1290 H   0  0  0  0  0  0  0  0  0  0  0  0
   -8.0130    5.9290  -14.0630 H   0  0  0  0  0  0  0  0  0  0  0  0
   -2.9030    1.0840  -12.3390 H   0  0  0  0  0  0  0  0  0  0  0  0
   -4.1110    1.9640  -13.3060 H   0  0  0  0  0  0  0  0  0  0  0  0
   -4.2930    0.2150  -13.0310 H   0  0  0  0  0  0  0  0  0  0  0  0
   -2.0120   -1.1410  -13.7340 H   0  0  0  0  0  0  0  0  0  0  0  0
   -1.0410   -0.4080  -15.0330 H   0  0  0  0  0  0  0  0  0  0  0  0
   -0.9700    0.2580  -13.3840 H   0  0  0  0  0  0  0  0  0  0  0  0
   -3.0380    2.7210  -15.2500 H   0  0  0  0  0  0  0  0  0  0  0  0
   -1.5680    2.5110  -14.2670 H   0  0  0  0  0  0  0  0  0  0  0  0
   -1.6390    1.8450  -15.9170 H   0  0  0  0  0  0  0  0  0  0  0  0
 15 14  1  0
 15 16  1  0
 15 17  1  0
 15 18  1  0
  1  2  1  0
  1 21  1  0
  1 22  1  0
  1 23  1  0
  2  3  1  0
  2 24  1  0
  2 25  1  0
  3  4  1  0
  3 12  1  0
  5  4  1  0
  5  6  2  0
  5  7  1  0
  8  7  1  0
  8  9  1  0
  8 10  1  0
  8 11  1  0
  9 41  1  0
  9 42  1  0
  9 43  1  0
 10 38  1  0
 10 39  1  0
 10 40  1  0
 11 35  1  0
 11 36  1  0
 11 37  1  0
 12 13  1  0
 12 20  1  0
 14 13  1  0
 14 19  1  0
 14 27  1  0
 19 20  1  0
 19 28  1  0
 19 29  1  0
 20 21  1  0
 21 30  1  0
 21 31  1  0
 26  4  1  0
 32 16  1  0
 33 17  1  0
 34 18  1  0
M  CHG  4   3  -1  12  -1  15  -1  20  -1
M  END
