6sp7_K9B_ligand
     RDKit          3D

 59 61  0  0  0  0  0  0  0  0999 V2000
  -30.2920   11.2590   68.6510 C   0  0  0  0  0  0  0  0  0  0  0  0
  -30.4270   12.6320   68.3420 C   0  0  0  0  0  0  0  0  0  0  0  0
  -27.0440   16.6850   69.5310 C   0  0  0  0  0  0  0  0  0  0  0  0
  -26.3580   17.8890   70.1470 C   0  0  2  0  0  0  0  0  0  0  0  0
  -24.8740   17.6900   69.8750 C   0  0  0  0  0  0  0  0  0  0  0  0
  -24.0700   18.8530   70.4290 C   0  0  0  0  0  0  0  0  0  0  0  0
  -24.2740   18.9230   71.9130 C   0  0  2  0  0  0  0  0  0  0  0  0
  -31.4350   15.0220   71.5470 B   0  0  0  0  0  4  0  0  0  0  0  0
  -28.5280   16.7950   69.6240 C   0  0  0  0  0  0  0  0  0  0  0  0
  -30.7090   15.7060   70.2740 C   0  0  2  0  0  0  0  0  0  0  0  0
  -31.5760   12.9710   70.4270 C   0  0  0  0  0  0  0  0  0  0  0  0
  -31.4070   11.6100   70.7680 C   0  0  0  0  0  0  0  0  0  0  0  0
  -31.9380   11.0440   72.1000 C   0  0  0  0  0  0  0  0  0  0  0  0
  -30.7720   10.7410   69.8510 C   0  0  0  0  0  0  0  0  0  0  0  0
  -31.0390   13.4880   69.2630 C   0  0  0  0  0  0  0  0  0  0  0  0
  -31.2020   14.9370   69.0060 C   0  0  0  0  0  0  0  0  0  0  0  0
  -25.7710   19.1300   72.2220 C   0  0  0  0  0  0  0  0  0  0  0  0
  -26.6140   17.9930   71.6370 C   0  0  0  0  0  0  0  0  0  0  0  0
  -29.2420   15.7890   70.2040 N   0  0  0  0  0  0  0  0  0  0  0  0
  -28.9600   17.7890   69.0840 O   0  0  0  0  0  0  0  0  0  0  0  0
  -32.1990   15.8990   72.4780 O   0  0  0  0  0  0  0  0  0  0  0  0
  -30.2990   14.6200   72.4910 O   0  0  0  0  0  0  0  0  0  0  0  0
  -32.1840   13.8630   71.2480 O   0  0  0  0  0  0  0  0  0  0  0  0
  -32.8080   11.6750   72.7490 O   0  0  0  0  0  0  0  0  0  0  0  0
  -31.4250    9.9890   72.6120 O   0  0  0  0  0  1  0  0  0  0  0  0
  -23.4440   20.0760   72.3350 N   0  0  0  0  0  4  0  0  0  0  0  0
  -22.0830   19.6540   72.7430 C   0  0  0  0  0  0  0  0  0  0  0  0
  -22.1600   19.0260   74.1330 C   0  0  0  0  0  0  0  0  0  0  0  0
  -21.5200   19.9410   75.0900 N   0  0  0  0  0  4  0  0  0  0  0  0
  -29.8080   10.6010   67.9450 H   0  0  0  0  0  0  0  0  0  0  0  0
  -30.0600   13.0170   67.4020 H   0  0  0  0  0  0  0  0  0  0  0  0
  -26.7600   16.6140   68.4820 H   0  0  0  0  0  0  0  0  0  0  0  0
  -26.7200   15.7840   70.0510 H   0  0  0  0  0  0  0  0  0  0  0  0
  -26.7020   18.7980   69.6540 H   0  0  0  0  0  0  0  0  0  0  0  0
  -24.5420   16.7670   70.3500 H   0  0  0  0  0  0  0  0  0  0  0  0
  -24.7110   17.6200   68.7990 H   0  0  0  0  0  0  0  0  0  0  0  0
  -24.4060   19.7820   69.9690 H   0  0  0  0  0  0  0  0  0  0  0  0
  -23.0120   18.7020   70.2130 H   0  0  0  0  0  0  0  0  0  0  0  0
  -23.9150   18.0090   72.3860 H   0  0  0  0  0  0  0  0  0  0  0  0
  -31.0900   16.7240   70.1980 H   0  0  0  0  0  0  0  0  0  0  0  0
  -30.6600    9.6910   70.0770 H   0  0  0  0  0  0  0  0  0  0  0  0
  -30.6070   15.2300   68.1400 H   0  0  0  0  0  0  0  0  0  0  0  0
  -32.2530   15.1630   68.8240 H   0  0  0  0  0  0  0  0  0  0  0  0
  -26.0980   20.0750   71.7870 H   0  0  0  0  0  0  0  0  0  0  0  0
  -25.9140   19.1630   73.3020 H   0  0  0  0  0  0  0  0  0  0  0  0
  -26.3410   17.0540   72.1190 H   0  0  0  0  0  0  0  0  0  0  0  0
  -27.6710   18.1970   71.8120 H   0  0  0  0  0  0  0  0  0  0  0  0
  -28.7170   15.0340   70.6230 H   0  0  0  0  0  0  0  0  0  0  0  0
  -23.3680   20.7230   71.5640 H   0  0  0  0  0  0  0  0  0  0  0  0
  -23.8930   20.5400   73.1120 H   0  0  0  0  0  0  0  0  0  0  0  0
  -21.4230   20.5210   72.7690 H   0  0  0  0  0  0  0  0  0  0  0  0
  -21.6980   18.9230   72.0320 H   0  0  0  0  0  0  0  0  0  0  0  0
  -23.2030   18.8740   74.4100 H   0  0  0  0  0  0  0  0  0  0  0  0
  -21.6370   18.0700   74.1330 H   0  0  0  0  0  0  0  0  0  0  0  0
  -20.5840   19.6170   75.2910 H   0  0  0  0  0  0  0  0  0  0  0  0
  -22.0580   19.9670   75.9440 H   0  0  0  0  0  0  0  0  0  0  0  0
  -21.4760   20.8690   74.6920 H   0  0  0  0  0  0  0  0  0  0  0  0
  -29.4600   14.9060   72.1220 H   0  0  0  0  0  0  0  0  0  0  0  0
  -32.2470   16.7870   72.1150 H   0  0  0  0  0  0  0  0  0  0  0  0
  8 10  1  0
  8 21  1  0
  8 22  1  0
  8 23  1  0
  9  3  1  0
  9 19  1  0
  9 20  2  0
 10 16  1  0
 10 19  1  0
 10 40  1  6
 11 12  2  0
 11 15  1  0
 11 23  1  0
 12 13  1  0
 12 14  1  0
 13 24  2  0
 13 25  1  0
 14  1  2  0
 14 41  1  0
  1  2  1  0
  1 30  1  0
  2 15  2  0
  2 31  1  0
 15 16  1  0
 16 42  1  0
 16 43  1  0
  3  4  1  0
  3 32  1  0
  3 33  1  0
 27 26  1  0
 27 28  1  0
 27 51  1  0
 27 52  1  0
  4  5  1  0
  4 18  1  0
  4 34  1  6
  5  6  1  0
  5 35  1  0
  5 36  1  0
  6  7  1  0
  6 37  1  0
  6 38  1  0
  7 17  1  0
  7 26  1  0
  7 39  1  1
 17 18  1  0
 17 44  1  0
 17 45  1  0
 18 46  1  0
 18 47  1  0
 28 29  1  0
 28 53  1  0
 28 54  1  0
 48 19  1  0
 59 21  1  0
 58 22  1  0
 26 49  1  0
 50 26  1  0
 29 55  1  0
 56 29  1  0
 57 29  1  0
M  CHG  4   8  -1  25  -1  26   1  29   1
M  END
