REMARK  5 active torsions:
REMARK  status: ('A' for Active; 'I' for Inactive)
REMARK    1  A    between atoms: C1_1  and  C2_2 
REMARK    2  A    between atoms: C1_1  and  C8_8 
REMARK    3  A    between atoms: C1_1  and  C14_14 
REMARK    4  A    between atoms: C14_14  and  O17_17 
REMARK    5  A    between atoms: O17_17  and  C18_18 
ROOT
HETATM    1  C1  QNB A 501     183.275  25.800 527.685  1.00 49.95     0.241 C 
HETATM    2  O15 QNB A 501     183.546  24.502 528.221  1.00 55.21    -0.207 OA
ENDROOT
BRANCH   1   3
HETATM    3  C2  QNB A 501     183.907  26.845 528.614  1.00 47.67     0.018 A 
HETATM    4  C3  QNB A 501     184.198  28.125 528.157  1.00 42.85    -0.001 A 
HETATM    5  C4  QNB A 501     184.771  29.063 529.000  1.00 43.33    -0.000 A 
HETATM    6  C5  QNB A 501     185.060  28.737 530.306  1.00 45.41    -0.000 A 
HETATM    7  C6  QNB A 501     184.779  27.472 530.773  1.00 46.68    -0.000 A 
HETATM    8  C7  QNB A 501     184.205  26.531 529.934  1.00 49.07    -0.001 A 
ENDBRANCH   1   3
BRANCH   1   9
HETATM    9  C8  QNB A 501     183.887  25.869 526.281  1.00 56.32     0.018 A 
HETATM   10  C9  QNB A 501     185.249  25.665 526.091  1.00 57.72    -0.001 A 
HETATM   11  C10 QNB A 501     185.804  25.728 524.825  1.00 56.54    -0.000 A 
HETATM   12  C11 QNB A 501     185.010  25.995 523.732  1.00 56.78    -0.000 A 
HETATM   13  C12 QNB A 501     183.659  26.200 523.904  1.00 58.91    -0.000 A 
HETATM   14  C13 QNB A 501     183.100  26.137 525.168  1.00 59.48    -0.001 A 
ENDBRANCH   1   9
BRANCH   1  15
HETATM   15  C14 QNB A 501     181.745  25.989 527.636  1.00 45.61     0.308 C 
HETATM   16  O16 QNB A 501     180.970  25.079 527.732  1.00 44.66    -0.261 OA
BRANCH  15  17
HETATM   17  O17 QNB A 501     181.385  27.272 527.499  1.00 39.64    -0.300 OA
BRANCH  17  18
HETATM   18  C18 QNB A 501     179.965  27.588 527.592  1.00 38.38     0.158 C 
HETATM   19  C19 QNB A 501     179.813  28.967 528.197  1.00 36.21     0.280 C 
HETATM   20  N20 QNB A 501     179.342  29.940 527.210  1.00 42.64     0.140 N 
HETATM   21  C21 QNB A 501     180.253  29.967 526.062  1.00 43.83     0.250 C 
HETATM   22  C25 QNB A 501     178.003  29.564 526.745  1.00 43.24     0.250 C 
HETATM   23  C22 QNB A 501     180.301  28.609 525.371  1.00 43.83     0.038 C 
HETATM   24  C23 QNB A 501     179.440  27.631 526.165  1.00 45.71     0.034 C 
HETATM   25  C24 QNB A 501     178.001  28.142 526.197  1.00 47.21     0.038 C 
ENDBRANCH  17  18
ENDBRANCH  15  17
ENDBRANCH   1  15
TORSDOF 5
