4HZE_X7A_ligand
     RDKit          3D

 50 50  0  0  0  0  0  0  0  0999 V2000
   35.0370   88.9670   72.1790 O   0  0  0  0  0  1  0  0  0  0  0  0
   34.0070   88.6510   71.5440 C   0  0  0  0  0  0  0  0  0  0  0  0
   33.1440   89.4950   71.2110 O   0  0  0  0  0  0  0  0  0  0  0  0
   33.7750   87.2050   71.1800 C   0  0  1  0  0  0  0  0  0  0  0  0
   32.3690   87.0280   70.7860 N   0  0  0  0  0  4  0  0  0  0  0  0
   34.5610   86.8120   69.9170 C   0  0  0  0  0  0  0  0  0  0  0  0
   36.0780   86.8340   69.9810 C   0  0  0  0  0  0  0  0  0  0  0  0
   36.6730   86.2260   68.7090 C   0  0  0  0  0  0  0  0  0  0  0  0
   36.8780   87.2760   67.6020 C   0  0  0  0  0  0  0  0  0  0  0  0
   37.3570   86.6670   66.2290 B   0  0  0  0  0  4  0  0  0  0  0  0
   38.5290   85.7050   66.5750 O   0  0  0  0  0  0  0  0  0  0  0  0
   37.9450   87.6170   65.2360 O   0  0  0  0  0  0  0  0  0  0  0  0
   36.4180   85.7470   65.5340 O   0  0  0  0  0  0  0  0  0  0  0  0
   34.0500   86.3120   72.4000 C   0  0  0  0  0  0  0  0  0  0  0  0
   33.0170   86.5020   73.5120 C   0  0  0  0  0  0  0  0  0  0  0  0
   33.1950   85.5400   74.6220 N   0  0  0  0  0  4  0  0  0  0  0  0
   32.9550   84.1820   74.1190 C   0  0  0  0  0  0  0  0  0  0  0  0
   33.2280   83.1640   75.2190 C   0  0  0  0  0  0  0  0  0  0  0  0
   32.3250   83.4190   76.4180 C   0  0  0  0  0  0  0  0  0  0  0  0
   32.4780   84.8680   76.8730 C   0  0  0  0  0  0  0  0  0  0  0  0
   32.2440   85.8300   75.7060 C   0  0  0  0  0  0  0  0  0  0  0  0
   34.2630   85.7970   69.6550 H   0  0  0  0  0  0  0  0  0  0  0  0
   34.2490   87.4730   69.1090 H   0  0  0  0  0  0  0  0  0  0  0  0
   36.4180   87.8650   70.0790 H   0  0  0  0  0  0  0  0  0  0  0  0
   36.4110   86.2600   70.8450 H   0  0  0  0  0  0  0  0  0  0  0  0
   35.9980   85.4540   68.3400 H   0  0  0  0  0  0  0  0  0  0  0  0
   37.6350   85.7710   68.9490 H   0  0  0  0  0  0  0  0  0  0  0  0
   35.9320   87.7910   67.4380 H   0  0  0  0  0  0  0  0  0  0  0  0
   37.6180   88.0020   67.9410 H   0  0  0  0  0  0  0  0  0  0  0  0
   34.0330   85.2700   72.0810 H   0  0  0  0  0  0  0  0  0  0  0  0
   35.0400   86.5450   72.7930 H   0  0  0  0  0  0  0  0  0  0  0  0
   32.0210   86.3680   73.0900 H   0  0  0  0  0  0  0  0  0  0  0  0
   33.1020   87.5150   73.9050 H   0  0  0  0  0  0  0  0  0  0  0  0
   34.1390   85.6060   74.9750 H   0  0  0  0  0  0  0  0  0  0  0  0
   31.9170   84.0950   73.7970 H   0  0  0  0  0  0  0  0  0  0  0  0
   33.6140   83.9870   73.2740 H   0  0  0  0  0  0  0  0  0  0  0  0
   34.2690   83.2430   75.5310 H   0  0  0  0  0  0  0  0  0  0  0  0
   33.0420   82.1600   74.8350 H   0  0  0  0  0  0  0  0  0  0  0  0
   31.2880   83.2350   76.1360 H   0  0  0  0  0  0  0  0  0  0  0  0
   32.6040   82.7510   77.2320 H   0  0  0  0  0  0  0  0  0  0  0  0
   33.4850   85.0160   77.2630 H   0  0  0  0  0  0  0  0  0  0  0  0
   31.7540   85.0760   77.6610 H   0  0  0  0  0  0  0  0  0  0  0  0
   32.3880   86.8550   76.0480 H   0  0  0  0  0  0  0  0  0  0  0  0
   31.2260   85.7110   75.3370 H   0  0  0  0  0  0  0  0  0  0  0  0
   32.1560   87.6450   70.0140 H   0  0  0  0  0  0  0  0  0  0  0  0
   31.7690   87.2480   71.5680 H   0  0  0  0  0  0  0  0  0  0  0  0
   32.2170   86.0710   70.5030 H   0  0  0  0  0  0  0  0  0  0  0  0
   37.6670   88.5110   65.4450 H   0  0  0  0  0  0  0  0  0  0  0  0
   35.5270   85.8910   65.8620 H   0  0  0  0  0  0  0  0  0  0  0  0
   39.0900   85.5940   65.8040 H   0  0  0  0  0  0  0  0  0  0  0  0
 10  9  1  0
 10 11  1  0
 10 12  1  0
 10 13  1  0
  4  2  1  0
  4  5  1  0
  4  6  1  6
  4 14  1  0
 14 15  1  0
 14 30  1  0
 14 31  1  0
 15 16  1  0
 15 32  1  0
 15 33  1  0
 17 16  1  0
 17 18  1  0
 17 35  1  0
 17 36  1  0
 18 19  1  0
 18 37  1  0
 18 38  1  0
 19 20  1  0
 19 39  1  0
 19 40  1  0
 20 21  1  0
 20 41  1  0
 20 42  1  0
 21 16  1  0
 21 43  1  0
 21 44  1  0
  2  3  2  0
  2  1  1  0
  6  7  1  0
  6 22  1  0
  6 23  1  0
  7  8  1  0
  7 24  1  0
  7 25  1  0
  8  9  1  0
  8 26  1  0
  8 27  1  0
  9 28  1  0
  9 29  1  0
 16 34  1  0
 49 13  1  0
  5 45  1  0
 46  5  1  0
 47  5  1  0
 50 11  1  0
 48 12  1  0
M  CHG  4   1  -1   5   1  10  -1  16   1
M  END
