REMARK  6 active torsions:
REMARK  status: ('A' for Active; 'I' for Inactive)
REMARK    1  A    between atoms: C1_1  and  C3_6 
REMARK    2  A    between atoms: C3_6  and  C8_11 
REMARK    3  A    between atoms: C8_11  and  C9_12 
REMARK    4  A    between atoms: C11_14  and  C14_17 
REMARK    5  A    between atoms: C14_17  and  C16_19 
REMARK    6  A    between atoms: C16_19  and  C17_20 
ROOT
HETATM    1  N1  L0B D1205      14.547 -26.104 -17.752  1.00 57.48     0.136 N 
HETATM    2  C9  L0B D1205      15.191 -27.409 -17.479  1.00117.87     0.227 C 
HETATM    3  C11 L0B D1205      13.737 -25.689 -16.594  1.00 80.84     0.222 C 
HETATM    4  C12 L0B D1205      16.011 -27.433 -16.193  1.00 29.57     0.034 C 
HETATM    5  C13 L0B D1205      14.699 -25.390 -15.454  1.00 56.27     0.033 C 
HETATM    6  C15 L0B D1205      15.402 -26.668 -15.029  1.00 59.25     0.004 C 
HETATM    7  C22 L0B D1205      15.507 -25.058 -18.111  1.00 45.01     0.285 C 
ENDROOT
BRANCH   2   8
HETATM    8  C8  L0B D1205      16.135 -27.846 -18.593  1.00 31.13     0.102 C 
BRANCH   8   9
HETATM    9  C3  L0B D1205      15.485 -27.913 -19.953  1.00136.57     0.175 C 
HETATM   10  O1  L0B D1205      14.350 -27.522 -20.175  1.00 75.09    -0.291 OA
BRANCH   9  11
HETATM   11  C1  L0B D1205      16.339 -28.414 -21.068  1.00 46.39     0.035 A 
HETATM   12  C2  L0B D1205      17.652 -28.826 -20.774  1.00 91.68     0.003 A 
HETATM   13  C5  L0B D1205      18.508 -29.219 -21.803  1.00 88.88     0.000 A 
HETATM   14  C6  L0B D1205      18.058 -29.189 -23.131  1.00 60.84     0.000 A 
HETATM   15  C7  L0B D1205      16.761 -28.728 -23.441  1.00 27.81     0.000 A 
HETATM   16  C4  L0B D1205      15.896 -28.321 -22.404  1.00 67.18     0.003 A 
ENDBRANCH   9  11
ENDBRANCH   8   9
ENDBRANCH   2   8
BRANCH   3  17
HETATM   17  C14 L0B D1205      12.851 -24.464 -16.845  1.00 58.27     0.071 C 
BRANCH  17  18
HETATM   18  C16 L0B D1205      12.019 -24.447 -18.137  1.00 49.23     0.176 C 
HETATM   19  O2  L0B D1205      12.680 -25.041 -19.269  1.00 64.94    -0.218 OA
BRANCH  18  20
HETATM   20  C17 L0B D1205      11.674 -23.026 -18.420  1.00 52.08     0.008 A 
HETATM   21  C18 L0B D1205      10.722 -22.393 -17.619  1.00 97.33    -0.002 A 
HETATM   22  C20 L0B D1205      10.423 -21.046 -17.813  1.00 60.61    -0.000 A 
HETATM   23  C21 L0B D1205      11.091 -20.316 -18.802  1.00 89.26    -0.000 A 
HETATM   24  C10 L0B D1205      12.056 -20.939 -19.592  1.00 90.86    -0.000 A 
HETATM   25  C19 L0B D1205      12.354 -22.290 -19.395  1.00 88.60    -0.002 A 
ENDBRANCH  18  20
ENDBRANCH  17  18
ENDBRANCH   3  17
TORSDOF 6
