REMARK  7 active torsions:
REMARK  status: ('A' for Active; 'I' for Inactive)
REMARK    1  A    between atoms: N2_5  and  C4_6 
REMARK    2  A    between atoms: C4_6  and  C5_7 
REMARK    3  A    between atoms: C8_10  and  C11_13 
REMARK       I    between atoms: C11_13  and  N3_15 
REMARK    4  A    between atoms: N3_15  and  C12_16 
REMARK    5  A    between atoms: C17_21  and  N4_22 
REMARK    6  A    between atoms: N4_22  and  C18_23 
REMARK    7  A    between atoms: C21_27  and  C22_29 
ROOT
HETATM    1  C12 UNL     1       1.395  -0.522   2.031  1.00  0.00     0.037 A 
HETATM    2  C13 UNL     1       1.330  -1.382   3.136  1.00  0.00     0.030 A 
HETATM    3  C14 UNL     1       2.485  -1.687   3.858  1.00  0.00     0.011 A 
HETATM    4  C15 UNL     1       3.734  -1.174   3.463  1.00  0.00    -0.035 A 
HETATM    5  C16 UNL     1       4.960  -1.549   4.250  1.00  0.00     0.050 C 
HETATM    6  C17 UNL     1       3.822  -0.350   2.315  1.00  0.00     0.057 A 
HETATM    7  C27 UNL     1       2.635  -0.000   1.641  1.00  0.00     0.060 A 
ENDROOT
BRANCH   1   8
HETATM    8  N3  UNL     1       0.236  -0.228   1.234  1.00  0.00    -0.323 N 
HETATM    9  C11 UNL     1      -1.083  -0.034   1.764  1.00  0.00     0.256 C 
HETATM   10  O1  UNL     1      -1.256   0.057   3.011  1.00  0.00    -0.267 OA
HETATM   11  H14 UNL     1       0.400   0.013   0.229  1.00  0.00     0.169 HD
BRANCH   9  12
HETATM   12  C8  UNL     1      -2.237   0.157   0.852  1.00  0.00     0.032 A 
HETATM   13  C7  UNL     1      -2.232  -0.402  -0.437  1.00  0.00     0.017 A 
HETATM   14  C6  UNL     1      -3.278  -0.136  -1.324  1.00  0.00     0.010 A 
HETATM   15  C5  UNL     1      -4.344   0.695  -0.947  1.00  0.00    -0.030 A 
HETATM   16  C10 UNL     1      -4.377   1.210   0.361  1.00  0.00     0.010 A 
HETATM   17  C9  UNL     1      -3.341   0.929   1.257  1.00  0.00     0.017 A 
BRANCH  15  18
HETATM   18  C4  UNL     1      -5.388   1.086  -1.977  1.00  0.00     0.311 C 
BRANCH  18  19
HETATM   19  N2  UNL     1      -6.744   0.547  -1.728  1.00  0.00     0.096 N 
HETATM   20  C3  UNL     1      -6.781  -0.835  -1.229  1.00  0.00     0.303 C 
HETATM   21  C2  UNL     1      -8.212  -1.375  -1.350  1.00  0.00     0.302 C 
HETATM   22  N1  UNL     1      -9.241  -0.457  -0.788  1.00  0.00     0.087 N 
HETATM   23  C1  UNL     1     -10.279  -0.122  -1.773  1.00  0.00     0.310 C 
HETATM   24  C29 UNL     1      -8.690   0.752  -0.137  1.00  0.00     0.302 C 
HETATM   25  C28 UNL     1      -7.649   1.475  -1.016  1.00  0.00     0.303 C 
ENDBRANCH  18  19
ENDBRANCH  15  18
ENDBRANCH   9  12
ENDBRANCH   1   8
BRANCH   6  26
HETATM   26  N4  UNL     1       5.101   0.139   1.860  1.00  0.00    -0.188 N 
HETATM   27  H20 UNL     1       5.853   0.299   2.563  1.00  0.00     0.184 HD
BRANCH  26  28
HETATM   28  C18 UNL     1       5.510   0.194   0.485  1.00  0.00     0.727 A 
HETATM   29  N5  UNL     1       4.604   0.102  -0.527  1.00  0.00    -0.075 NA
HETATM   30  C19 UNL     1       4.991   0.166  -1.827  1.00  0.00     0.139 A 
HETATM   31  C20 UNL     1       6.340   0.308  -2.147  1.00  0.00     0.053 A 
HETATM   32  C21 UNL     1       7.280   0.383  -1.097  1.00  0.00     0.089 A 
HETATM   33  N6  UNL     1       6.830   0.331   0.189  1.00  0.00    -0.062 NA
BRANCH  32  34
HETATM   34  C22 UNL     1       8.746   0.485  -1.347  1.00  0.00     0.011 A 
HETATM   35  C23 UNL     1       9.659   0.125  -0.338  1.00  0.00     0.017 A 
HETATM   36  C24 UNL     1      11.034   0.209  -0.563  1.00  0.00     0.020 A 
HETATM   37  C25 UNL     1      11.499   0.658  -1.797  1.00  0.00     0.116 A 
HETATM   38  N7  UNL     1      10.614   1.015  -2.764  1.00  0.00    -0.272 NA
HETATM   39  C26 UNL     1       9.269   0.944  -2.574  1.00  0.00     0.130 A 
ENDBRANCH  32  34
ENDBRANCH  26  28
ENDBRANCH   6  26
TORSDOF 7
