REMARK  7 active torsions:
REMARK  status: ('A' for Active; 'I' for Inactive)
REMARK    1  A    between atoms: N2_5  and  C4_6 
REMARK    2  A    between atoms: C4_6  and  C5_7 
REMARK    3  A    between atoms: C8_10  and  N3_11 
REMARK       I    between atoms: N3_11  and  C9_12 
REMARK    4  A    between atoms: C9_12  and  C10_14 
REMARK    5  A    between atoms: C15_19  and  C17_21 
REMARK    6  A    between atoms: C18_22  and  C19_23 
REMARK    7  A    between atoms: C26_33  and  C27_34 
ROOT
HETATM    1  N3  UNL     1       0.093  -1.688  -1.172  1.00  0.00    -0.323 N 
HETATM    2  C9  UNL     1       1.150  -1.821  -0.202  1.00  0.00     0.256 C 
HETATM    3  O1  UNL     1       0.911  -1.729   1.033  1.00  0.00    -0.267 OA
HETATM    4  H12 UNL     1       0.328  -1.858  -2.176  1.00  0.00     0.169 HD
ENDROOT
BRANCH   1   5
HETATM    5  C8  UNL     1      -1.289  -1.423  -0.862  1.00  0.00     0.035 A 
HETATM    6  C7  UNL     1      -1.666  -0.636   0.234  1.00  0.00     0.030 A 
HETATM    7  C6  UNL     1      -3.013  -0.407   0.509  1.00  0.00     0.012 A 
HETATM    8  C5  UNL     1      -4.027  -0.914  -0.331  1.00  0.00    -0.015 A 
HETATM    9  C26 UNL     1      -3.650  -1.679  -1.471  1.00  0.00     0.058 A 
HETATM   10  C25 UNL     1      -2.283  -1.912  -1.719  1.00  0.00     0.046 A 
BRANCH   8  11
HETATM   11  C4  UNL     1      -5.496  -0.699   0.017  1.00  0.00     0.311 C 
BRANCH  11  12
HETATM   12  N2  UNL     1      -5.693   0.278   1.114  1.00  0.00     0.096 N 
HETATM   13  C3  UNL     1      -5.562   1.681   0.654  1.00  0.00     0.303 C 
HETATM   14  C2  UNL     1      -6.868   2.244   0.050  1.00  0.00     0.302 C 
HETATM   15  N1  UNL     1      -8.097   1.811   0.762  1.00  0.00     0.087 N 
HETATM   16  C1  UNL     1      -9.061   2.917   0.877  1.00  0.00     0.310 C 
HETATM   17  C29 UNL     1      -7.812   1.238   2.087  1.00  0.00     0.302 C 
HETATM   18  C28 UNL     1      -6.916   0.009   1.916  1.00  0.00     0.303 C 
ENDBRANCH  11  12
ENDBRANCH   8  11
BRANCH   9  19
HETATM   19  C27 UNL     1      -4.684  -2.227  -2.442  1.00  0.00     0.418 C 
HETATM   20  F1  UNL     1      -5.337  -1.181  -3.075  1.00  0.00    -0.166 F 
HETATM   21  F2  UNL     1      -4.105  -3.021  -3.418  1.00  0.00    -0.166 F 
HETATM   22  F3  UNL     1      -5.610  -3.001  -1.767  1.00  0.00    -0.166 F 
ENDBRANCH   9  19
ENDBRANCH   1   5
BRANCH   2  23
HETATM   23  C10 UNL     1       2.535  -2.083  -0.643  1.00  0.00     0.033 A 
HETATM   24  C11 UNL     1       2.796  -2.991  -1.681  1.00  0.00     0.017 A 
HETATM   25  C12 UNL     1       4.108  -3.226  -2.101  1.00  0.00     0.009 A 
HETATM   26  C13 UNL     1       5.181  -2.552  -1.496  1.00  0.00    -0.043 A 
HETATM   27  C14 UNL     1       6.586  -2.804  -1.977  1.00  0.00     0.049 C 
HETATM   28  C15 UNL     1       4.922  -1.639  -0.449  1.00  0.00     0.025 A 
HETATM   29  C16 UNL     1       3.605  -1.424  -0.018  1.00  0.00     0.038 A 
BRANCH  28  30
HETATM   30  C17 UNL     1       5.989  -0.893   0.172  1.00  0.00    -0.059 C 
HETATM   31  C18 UNL     1       6.884  -0.258   0.671  1.00  0.00    -0.040 C 
BRANCH  31  32
HETATM   32  C19 UNL     1       7.954   0.509   1.249  1.00  0.00     0.131 A 
HETATM   33  C20 UNL     1       8.909   0.070   2.152  1.00  0.00     0.160 A 
HETATM   34  N4  UNL     1       9.764   1.086   2.445  1.00  0.00    -0.238 NA
HETATM   35  C21 UNL     1       9.299   2.113   1.701  1.00  0.00     0.151 A 
HETATM   36  C22 UNL     1       9.826   3.399   1.636  1.00  0.00     0.054 A 
HETATM   37  N6  UNL     1       8.218   1.791   0.981  1.00  0.00    -0.206 N 
HETATM   38  C23 UNL     1       9.181   4.313   0.789  1.00  0.00     0.025 A 
HETATM   39  C24 UNL     1       8.050   3.911   0.053  1.00  0.00     0.139 A 
HETATM   40  N5  UNL     1       7.586   2.634   0.167  1.00  0.00    -0.177 NA
ENDBRANCH  31  32
ENDBRANCH  28  30
ENDBRANCH   2  23
TORSDOF 7
