7kll_XFG_ligand
     RDKit          3D

 35 35  0  0  0  0  0  0  0  0999 V2000
  -21.0990   17.2710  -13.4080 N   0  0  1  0  0  0  0  0  0  0  0  0
  -22.5910   16.7340  -11.5060 C   0  0  1  0  0  0  0  0  0  0  0  0
  -23.0810   15.2920  -11.7490 C   0  0  2  0  0  0  0  0  0  0  0  0
  -24.5700   14.9330  -11.6880 C   0  0  1  0  0  0  0  0  0  0  0  0
  -24.8080   13.5440  -12.2920 C   0  0  1  0  0  0  0  0  0  0  0  0
  -20.1770   15.0770  -10.6540 O   0  0  0  0  0  0  0  0  0  0  0  0
  -20.1340   15.7030  -11.6930 C   0  0  0  0  0  0  0  0  0  0  0  0
  -19.2930   15.4400  -12.6660 O   0  0  0  0  0  0  0  0  0  0  0  0
  -21.0530   16.9450  -11.9380 C   0  0  1  0  0  0  0  0  0  0  0  0
  -22.4180   17.9290  -13.6950 C   0  0  2  0  0  0  0  0  0  0  0  0
  -23.2670   17.8250  -12.3590 C   0  0  2  0  0  0  0  0  0  0  0  0
  -23.3720   19.1500  -11.6730 N   0  0  2  0  0  0  0  0  0  0  0  0
  -26.3190   13.1200  -12.3750 B   0  0  1  0  0  0  0  0  0  0  0  0
  -27.1250   13.6040  -11.2690 O   0  0  0  0  0  0  0  0  0  0  0  0
  -27.0340   13.5660  -13.5650 O   0  0  0  0  0  0  0  0  0  0  0  0
  -26.5270   11.6440  -12.4630 O   0  0  0  0  0  0  0  0  0  0  0  0
  -20.3440   17.8990  -13.6440 H   0  0  0  0  0  0  0  0  0  0  0  0
  -21.0170   16.4220  -13.9490 H   0  0  0  0  0  0  0  0  0  0  0  0
  -22.7060   16.9810  -10.4500 H   0  0  0  0  0  0  0  0  0  0  0  0
  -22.5830   14.6690  -11.0050 H   0  0  0  0  0  0  0  0  0  0  0  0
  -22.7130   14.9850  -12.7280 H   0  0  0  0  0  0  0  0  0  0  0  0
  -24.8980   14.9340  -10.6490 H   0  0  0  0  0  0  0  0  0  0  0  0
  -25.1420   15.6720  -12.2470 H   0  0  0  0  0  0  0  0  0  0  0  0
  -24.3970   13.5360  -13.3010 H   0  0  0  0  0  0  0  0  0  0  0  0
  -24.2730   12.8080  -11.6920 H   0  0  0  0  0  0  0  0  0  0  0  0
  -20.6470   17.7990  -11.3970 H   0  0  0  0  0  0  0  0  0  0  0  0
  -22.9280   17.4130  -14.5080 H   0  0  0  0  0  0  0  0  0  0  0  0
  -22.2630   18.9750  -13.9570 H   0  0  0  0  0  0  0  0  0  0  0  0
  -24.2710   17.4890  -12.6150 H   0  0  0  0  0  0  0  0  0  0  0  0
  -23.5270   19.0050  -10.6850 H   0  0  0  0  0  0  0  0  0  0  0  0
  -24.1460   19.6700  -12.0630 H   0  0  0  0  0  0  0  0  0  0  0  0
  -22.5160   19.6670  -11.8080 H   0  0  0  0  0  0  0  0  0  0  0  0
  -27.0330   11.3470  -11.7040 H   0  0  0  0  0  0  0  0  0  0  0  0
  -27.4400   12.8590  -10.7520 H   0  0  0  0  0  0  0  0  0  0  0  0
  -26.4400   14.0690  -14.1260 H   0  0  0  0  0  0  0  0  0  0  0  0
 13  5  1  0
 13 14  1  1
 13 15  1  0
 13 16  1  0
 11  2  1  0
 11 10  1  0
 11 12  1  0
 11 29  1  6
 10  1  1  0
 10 27  1  6
 10 28  1  0
  9  1  1  0
  9  2  1  0
  9  7  1  0
  9 26  1  1
  7  6  1  0
  7  8  2  0
  2  3  1  0
  2 19  1  1
  3  4  1  0
  3 20  1  1
  3 21  1  0
  4  5  1  0
  4 23  1  6
  4 22  1  0
  5 24  1  6
  5 25  1  0
 35 15  1  0
 12 30  1  1
  1 17  1  6
 18  1  1  0
 31 12  1  0
 32 12  1  0
 33 16  1  0
 34 14  1  0
M  CHG  4   1   1   6  -1  12   1  13  -1
M  END
