6qqr
     RDKit          3D

 20 21  0  0  0  0  0  0  0  0999 V2000
   94.4660   98.7920   12.7080 O   0  0  0  0  0  0  0  0  0  0  0  0
   95.5830   97.9430   12.9310 B   0  0  0  0  0  0  0  0  0  0  0  0
   95.3890   96.5510   12.7780 O   0  0  0  0  0  0  0  0  0  0  0  0
   97.0180   98.5140   12.4170 C   0  0  0  0  0  0  0  0  0  0  0  0
   97.1690   99.8760   12.1480 C   0  0  0  0  0  0  0  0  0  0  0  0
   98.4240  100.3430   11.6800 C   0  0  0  0  0  0  0  0  0  0  0  0
   99.4640   99.4550   11.4920 C   0  0  0  0  0  0  0  0  0  0  0  0
   99.2920   98.0620   11.7630 C   0  0  0  0  0  0  0  0  0  0  0  0
   98.0730   97.6090   12.2180 C   0  0  0  0  0  0  0  0  0  0  0  0
  100.5580  100.1460   11.0360 N   0  0  0  0  0  0  0  0  0  0  0  0
  100.2770  101.4430   10.9250 C   0  0  0  0  0  0  0  0  0  0  0  0
   98.9510  101.6300   11.3130 C   0  0  0  0  0  0  0  0  0  0  0  0
   96.3460  100.5610   12.2940 H   0  0  0  0  0  0  0  0  0  0  0  0
  100.1080   97.3710   11.6120 H   0  0  0  0  0  0  0  0  0  0  0  0
   97.9300   96.5580   12.4210 H   0  0  0  0  0  0  0  0  0  0  0  0
  100.9580  102.2140   10.5940 H   0  0  0  0  0  0  0  0  0  0  0  0
   98.4170  102.5690   11.3330 H   0  0  0  0  0  0  0  0  0  0  0  0
  101.4510   99.7290   10.8150 H   0  0  0  0  0  0  0  0  0  0  0  0
   93.6770   98.3820   13.0680 H   0  0  0  0  0  0  0  0  0  0  0  0
   95.5770   96.2990   11.8710 H   0  0  0  0  0  0  0  0  0  0  0  0
  2  1  1  0
  2  3  1  0
  2  4  1  0
  4  5  2  0
  4  9  1  0
  5  6  1  0
  5 13  1  0
  6  7  2  0
  6 12  1  0
  7  8  1  0
  7 10  1  0
  8  9  2  0
  8 14  1  0
  9 15  1  0
 11 10  1  0
 11 12  2  0
 11 16  1  0
 12 17  1  0
 19  1  1  0
 20  3  1  0
 18 10  1  0
M  END
