5jww_6OQ_ligand
     RDKit          3D

 18 18  0  0  0  0  0  0  0  0999 V2000
  -33.0200    9.9350    3.4740 C   0  0  2  0  0  0  0  0  0  0  0  0
  -32.5330    9.0100    4.5850 C   0  0  2  0  0  0  0  0  0  0  0  0
  -32.6090    6.8240    3.1140 N   0  0  0  0  0  0  0  0  0  0  0  0
  -33.0730    5.5690    2.8190 C   0  0  0  0  0  0  0  0  0  0  0  0
  -33.9940    4.9610    3.6160 C   0  0  0  0  0  0  0  0  0  0  0  0
  -34.5090    5.6200    4.7670 C   0  0  0  0  0  0  0  0  0  0  0  0
  -34.0890    6.8660    5.1130 C   0  0  0  0  0  0  0  0  0  0  0  0
  -33.0680    7.5430    4.2470 B   0  0  0  0  0  0  0  0  0  0  0  0
  -32.9290    9.3400    5.5450 H   0  0  0  0  0  0  0  0  0  0  0  0
  -31.4430    9.0090    4.6150 H   0  0  0  0  0  0  0  0  0  0  0  0
  -31.9220    7.2490    2.5080 H   0  0  0  0  0  0  0  0  0  0  0  0
  -32.7030    5.0550    1.9440 H   0  0  0  0  0  0  0  0  0  0  0  0
  -34.3380    3.9670    3.3720 H   0  0  0  0  0  0  0  0  0  0  0  0
  -35.2460    5.1200    5.3780 H   0  0  0  0  0  0  0  0  0  0  0  0
  -34.4810    7.3580    5.9900 H   0  0  0  0  0  0  0  0  0  0  0  0
  -32.8740    9.4510    2.5080 H   0  0  0  0  0  0  0  0  0  0  0  0
  -32.4540   10.8660    3.5020 H   0  0  0  0  0  0  0  0  0  0  0  0
  -34.0790   10.1490    3.6170 H   0  0  0  0  0  0  0  0  0  0  0  0
  8  2  1  0
  8  3  1  0
  8  7  1  0
  1 16  1  6
  1 17  1  0
  1  2  1  0
  1 18  1  0
  2  9  1  1
  2 10  1  0
  4 12  1  0
  4  3  1  0
  4  5  2  0
  5 13  1  0
  5  6  1  0
  6 14  1  0
  6  7  2  0
  7 15  1  0
 11  3  1  0
M  END
