4ie1_1EC_ligand
     RDKit          3D

 38 37  0  0  0  0  0  0  0  0999 V2000
  -19.4460   15.6690  -12.7060 O   0  0  0  0  0  0  0  0  0  0  0  0
  -20.1500   16.1690  -11.7830 C   0  0  0  0  0  0  0  0  0  0  0  0
  -20.0370   15.7420  -10.6110 O   0  0  0  0  0  0  0  0  0  0  0  0
  -21.1720   17.2740  -12.0960 C   0  0  2  0  0  0  0  0  0  0  0  0
  -21.0550   17.5460  -13.5190 N   0  0  2  0  0  0  0  0  0  0  0  0
  -20.9040   18.5580  -11.3280 C   0  0  1  0  0  0  0  0  0  0  0  0
  -19.5390   19.1420  -11.6680 C   0  0  2  0  0  0  0  0  0  0  0  0
  -19.1850   20.3250  -10.7760 C   0  0  2  0  0  0  0  0  0  0  0  0
  -17.9710   20.9260  -11.2680 O   0  0  0  0  0  0  0  0  0  0  0  0
  -22.5860   16.8220  -11.7260 C   0  0  1  0  0  0  0  0  0  0  0  0
  -22.9160   15.3930  -12.1740 C   0  0  2  0  0  0  0  0  0  0  0  0
  -24.3570   14.9480  -11.8610 C   0  0  2  0  0  0  0  0  0  0  0  0
  -24.5570   13.4460  -12.1660 C   0  0  1  0  0  0  0  0  0  0  0  0
  -26.0260   13.0090  -12.5930 B   0  0  1  0  0  0  0  0  0  0  0  0
  -26.8680   13.4040  -11.4030 O   0  0  0  0  0  0  0  0  0  0  0  0
  -26.7310   13.6860  -13.7140 O   0  0  0  0  0  0  0  0  0  0  0  0
  -26.3830   11.5430  -12.6520 O   0  0  0  0  0  0  0  0  0  0  0  0
  -21.6730   19.2890  -11.5800 H   0  0  0  0  0  0  0  0  0  0  0  0
  -20.9470   18.3500  -10.2590 H   0  0  0  0  0  0  0  0  0  0  0  0
  -19.5470   19.4760  -12.7070 H   0  0  0  0  0  0  0  0  0  0  0  0
  -18.7810   18.3680  -11.5490 H   0  0  0  0  0  0  0  0  0  0  0  0
  -19.0360   19.9810   -9.7530 H   0  0  0  0  0  0  0  0  0  0  0  0
  -19.9920   21.0570  -10.8020 H   0  0  0  0  0  0  0  0  0  0  0  0
  -22.6910   16.8750  -10.6420 H   0  0  0  0  0  0  0  0  0  0  0  0
  -23.3030   17.5060  -12.1810 H   0  0  0  0  0  0  0  0  0  0  0  0
  -22.2310   14.7110  -11.6710 H   0  0  0  0  0  0  0  0  0  0  0  0
  -22.7540   15.3190  -13.2500 H   0  0  0  0  0  0  0  0  0  0  0  0
  -25.0490   15.5290  -12.4710 H   0  0  0  0  0  0  0  0  0  0  0  0
  -24.5670   15.1300  -10.8080 H   0  0  0  0  0  0  0  0  0  0  0  0
  -23.8810   13.1780  -12.9770 H   0  0  0  0  0  0  0  0  0  0  0  0
  -24.2740   12.8770  -11.2810 H   0  0  0  0  0  0  0  0  0  0  0  0
  -21.1270   16.6800  -14.0340 H   0  0  0  0  0  0  0  0  0  0  0  0
  -20.1600   17.9760  -13.7070 H   0  0  0  0  0  0  0  0  0  0  0  0
  -21.7960   18.1700  -13.8050 H   0  0  0  0  0  0  0  0  0  0  0  0
  -25.5820   11.0240  -12.7580 H   0  0  0  0  0  0  0  0  0  0  0  0
  -17.2270   20.6170  -10.7470 H   0  0  0  0  0  0  0  0  0  0  0  0
  -26.1550   14.3500  -14.0990 H   0  0  0  0  0  0  0  0  0  0  0  0
  -27.7850   13.1750  -11.5710 H   0  0  0  0  0  0  0  0  0  0  0  0
 14 13  1  0
 14 15  1  1
 14 16  1  0
 14 17  1  0
  2  1  2  0
  2  3  1  0
  4  2  1  1
  6  4  1  0
  6  7  1  0
  6 18  1  1
  6 19  1  0
  7  8  1  0
  7 20  1  6
  7 21  1  0
  8  9  1  0
  8 23  1  1
  8 22  1  0
  4  5  1  0
  4 10  1  0
 10 11  1  0
 10 24  1  1
 10 25  1  0
 11 12  1  0
 11 26  1  1
 11 27  1  0
 12 13  1  0
 12 28  1  6
 12 29  1  0
 13 30  1  6
 13 31  1  0
 35 17  1  0
 37 16  1  0
  5 32  1  6
 33  5  1  0
 34  5  1  0
 36  9  1  0
 38 15  1  0
M  CHG  3   3  -1   5   1  14  -1
M  END
