7np0_UKH_ligand
     RDKit          3D

 18 18  0  0  0  0  0  0  0  0999 V2000
   -6.6960    9.8880  -57.6030 B   0  0  0  0  0  0  0  0  0  0  0  0
   -7.8930    9.9330  -56.5860 C   0  0  0  0  0  0  0  0  0  0  0  0
   -8.0790    8.9270  -55.6450 C   0  0  0  0  0  0  0  0  0  0  0  0
   -9.1520    9.0060  -54.7670 C   0  0  0  0  0  0  0  0  0  0  0  0
  -10.0290   10.0860  -54.8370 C   0  0  0  0  0  0  0  0  0  0  0  0
   -9.8410   11.0850  -55.7760 C   0  0  0  0  0  0  0  0  0  0  0  0
   -8.7650   11.0100  -56.6500 C   0  0  0  0  0  0  0  0  0  0  0  0
  -11.1560   10.1610  -53.9330 N   0  0  0  0  0  0  0  0  0  0  0  0
   -5.7120    8.9850  -57.4650 O   0  0  0  0  0  0  0  0  0  0  0  0
  -12.1250   11.1600  -54.1050 O   0  0  0  0  0  0  0  0  0  0  0  0
  -11.2770    9.3550  -53.0770 O   0  0  0  0  0  0  0  0  0  0  0  0
   -6.7030   10.7350  -58.6450 O   0  0  0  0  0  0  0  0  0  0  0  0
   -7.3950    8.0920  -55.5970 H   0  0  0  0  0  0  0  0  0  0  0  0
   -9.3070    8.2310  -54.0300 H   0  0  0  0  0  0  0  0  0  0  0  0
  -10.5270   11.9180  -55.8280 H   0  0  0  0  0  0  0  0  0  0  0  0
   -8.6070   11.7890  -57.3810 H   0  0  0  0  0  0  0  0  0  0  0  0
   -5.2310    8.9070  -58.2920 H   0  0  0  0  0  0  0  0  0  0  0  0
   -5.8850   10.6430  -59.1380 H   0  0  0  0  0  0  0  0  0  0  0  0
  1  2  1  0
  1  9  1  0
  1 12  1  0
  2  3  2  0
  2  7  1  0
  3  4  1  0
  3 13  1  0
  4  5  2  0
  4 14  1  0
  5  6  1  0
  5  8  1  0
  6  7  2  0
  6 15  1  0
  7 16  1  0
 17  9  1  0
 18 12  1  0
  8 10  2  0
  8 11  1  0
M  CHG  2   8   1  11  -1
M  END
