REMARK  5 active torsions:
REMARK  status: ('A' for Active; 'I' for Inactive)
REMARK    1  A    between atoms: O1_2  and  C2_3 
REMARK    2  A    between atoms: C3_4  and  O2_5 
REMARK    3  A    between atoms: C6_9  and  C11_16 
REMARK    4  A    between atoms: C10_14  and  O5_15 
REMARK    5  A    between atoms: C14_19  and  O6_20 
ROOT
HETATM    1  C2  UNL     1       3.648  -0.260   0.139  1.00  0.00     0.135 A 
HETATM    2  C3  UNL     1       3.110  -0.246   1.435  1.00  0.00     0.104 A 
HETATM    3  C4  UNL     1       1.732  -0.174   1.618  1.00  0.00     0.077 A 
HETATM    4  C5  UNL     1       0.874  -0.084   0.522  1.00  0.00     0.096 A 
HETATM    5  O3  UNL     1      -0.434   0.006   0.743  1.00  0.00    -0.309 OA
HETATM    6  C6  UNL     1      -1.337   0.117  -0.227  1.00  0.00     0.090 A 
HETATM    7  C7  UNL     1      -0.904   0.161  -1.561  1.00  0.00     0.094 A 
HETATM    8  C8  UNL     1       0.459   0.084  -1.849  1.00  0.00     0.190 A 
HETATM    9  O4  UNL     1       0.823   0.204  -3.048  1.00  0.00    -0.287 OA
HETATM   10  C9  UNL     1       1.390  -0.088  -0.798  1.00  0.00     0.084 A 
HETATM   11  C10 UNL     1       2.795  -0.240  -0.984  1.00  0.00     0.119 A 
ENDROOT
BRANCH   6  12
HETATM   12  C11 UNL     1      -2.778   0.178   0.142  1.00  0.00    -0.002 A 
HETATM   13  C12 UNL     1      -3.187  -0.303   1.401  1.00  0.00     0.017 A 
HETATM   14  C13 UNL     1      -4.534  -0.274   1.772  1.00  0.00     0.037 A 
HETATM   15  C14 UNL     1      -5.496   0.232   0.894  1.00  0.00     0.065 A 
HETATM   16  C15 UNL     1      -5.101   0.732  -0.352  1.00  0.00     0.037 A 
HETATM   17  C16 UNL     1      -3.753   0.717  -0.724  1.00  0.00     0.017 A 
BRANCH  15  18
HETATM   18  O6  UNL     1      -6.838   0.230   1.266  1.00  0.00    -0.361 OA
HETATM   19  H10 UNL     1      -7.561   0.558   0.637  1.00  0.00     0.217 HD
ENDBRANCH  15  18
ENDBRANCH   6  12
BRANCH   2  20
HETATM   20  O2  UNL     1       3.936  -0.307   2.557  1.00  0.00    -0.358 OA
HETATM   21  H4  UNL     1       4.945  -0.359   2.483  1.00  0.00     0.217 HD
ENDBRANCH   2  20
BRANCH  11  22
HETATM   22  O5  UNL     1       3.379  -0.436  -2.238  1.00  0.00    -0.357 OA
HETATM   23  H7  UNL     1       2.883  -0.776  -3.050  1.00  0.00     0.218 HD
ENDBRANCH  11  22
BRANCH   1  24
HETATM   24  O1  UNL     1       5.035  -0.347  -0.020  1.00  0.00    -0.351 OA
HETATM   25  C1  UNL     1       5.796   0.671  -0.658  1.00  0.00     0.210 C 
ENDBRANCH   1  24
TORSDOF 5
