2PLL_ABH_ligand
     RDKit          3D

 28 27  0  0  0  0  0  0  0  0999 V2000
  -21.0520   17.5510  -13.7500 N   0  0  0  0  0  4  0  0  0  0  0  0
  -21.1280   17.4170  -12.2610 C   0  0  2  0  0  0  0  0  0  0  0  0
  -20.0370   16.3480  -11.8730 C   0  0  0  0  0  0  0  0  0  0  0  0
  -19.8090   15.9510  -10.7550 O   0  0  0  0  0  0  0  0  0  0  0  0
  -19.3740   15.8760  -12.9540 O   0  0  0  0  0  1  0  0  0  0  0  0
  -22.5350   16.8770  -11.8670 C   0  0  0  0  0  0  0  0  0  0  0  0
  -22.8270   15.4460  -12.3200 C   0  0  0  0  0  0  0  0  0  0  0  0
  -24.2540   15.0790  -11.8610 C   0  0  0  0  0  0  0  0  0  0  0  0
  -24.5730   13.6100  -12.0520 C   0  0  0  0  0  0  0  0  0  0  0  0
  -26.0600   13.0760  -12.1390 B   0  0  0  0  0  4  0  0  0  0  0  0
  -26.0390   11.6450  -12.3080 O   0  0  0  0  0  0  0  0  0  0  0  0
  -26.7090   13.5880  -13.3210 O   0  0  0  0  0  0  0  0  0  0  0  0
  -26.9290   13.3570  -11.0160 O   0  0  0  0  0  0  0  0  0  0  0  0
  -20.9280   18.3710  -11.7740 H   0  0  0  0  0  0  0  0  0  0  0  0
  -22.6190   16.9120  -10.7800 H   0  0  0  0  0  0  0  0  0  0  0  0
  -23.2910   17.5360  -12.2940 H   0  0  0  0  0  0  0  0  0  0  0  0
  -22.7600   15.3810  -13.4060 H   0  0  0  0  0  0  0  0  0  0  0  0
  -22.1080   14.7630  -11.8660 H   0  0  0  0  0  0  0  0  0  0  0  0
  -24.9670   15.6680  -12.4380 H   0  0  0  0  0  0  0  0  0  0  0  0
  -24.3620   15.3300  -10.8060 H   0  0  0  0  0  0  0  0  0  0  0  0
  -24.0880   13.3110  -12.9800 H   0  0  0  0  0  0  0  0  0  0  0  0
  -24.0830   13.0670  -11.2430 H   0  0  0  0  0  0  0  0  0  0  0  0
  -21.9260   17.9180  -14.1000 H   0  0  0  0  0  0  0  0  0  0  0  0
  -20.8790   16.6450  -14.1610 H   0  0  0  0  0  0  0  0  0  0  0  0
  -20.3010   18.1800  -13.9940 H   0  0  0  0  0  0  0  0  0  0  0  0
  -25.1360   11.3530  -12.4520 H   0  0  0  0  0  0  0  0  0  0  0  0
  -26.1190   14.1980  -13.7710 H   0  0  0  0  0  0  0  0  0  0  0  0
  -27.7990   12.9860  -11.1820 H   0  0  0  0  0  0  0  0  0  0  0  0
 10  9  1  0
 10 11  1  0
 10 12  1  0
 10 13  1  0
  3  2  1  0
  3  4  2  0
  3  5  1  0
  2 14  1  1
  2  1  1  0
  2  6  1  0
  6  7  1  0
  6 15  1  0
  6 16  1  0
  8  7  1  0
  8  9  1  0
  8 19  1  0
  8 20  1  0
  9 21  1  0
  9 22  1  0
  7 17  1  0
  7 18  1  0
  1 23  1  0
 27 12  1  0
 24  1  1  0
 26 11  1  0
 25  1  1  0
 28 13  1  0
M  CHG  3   1   1   5  -1  10  -1
M  END
