6v7e_QRA_ligand
     RDKit          3D

 45 46  0  0  0  0  0  0  0  0999 V2000
  -22.9910   19.8800  -11.2580 N   0  0  1  0  0  0  0  0  0  0  0  0
  -21.8410   19.3480   -9.2540 C   0  0  2  0  0  0  0  0  0  0  0  0
  -21.8910   20.8710   -9.3710 C   0  0  1  0  0  0  0  0  0  0  0  0
  -22.3500   21.1580  -10.7920 C   0  0  1  0  0  0  0  0  0  0  0  0
  -22.9890   17.4510  -10.5880 C   0  0  2  0  0  0  0  0  0  0  0  0
  -22.7390   16.7300  -11.9160 C   0  0  1  0  0  0  0  0  0  0  0  0
  -24.5130   14.8610  -12.1150 C   0  0  2  0  0  0  0  0  0  0  0  0
  -20.1870   15.7430  -10.5790 O   0  0  0  0  0  0  0  0  0  0  0  0
  -20.2630   16.0620  -11.7570 C   0  0  0  0  0  0  0  0  0  0  0  0
  -19.4950   15.5470  -12.6850 O   0  0  0  0  0  0  0  0  0  0  0  0
  -21.2510   17.1290  -12.3150 C   0  0  1  0  0  0  0  0  0  0  0  0
  -21.0900   17.3920  -13.7530 N   0  0  1  0  0  0  0  0  0  0  0  0
  -23.0510   15.2260  -11.8640 C   0  0  1  0  0  0  0  0  0  0  0  0
  -24.7650   13.3550  -12.2130 C   0  0  2  0  0  0  0  0  0  0  0  0
  -26.2870   13.0790  -12.3880 B   0  0  1  0  0  0  0  0  0  0  0  0
  -26.5560   11.6330  -12.6210 O   0  0  0  0  0  0  0  0  0  0  0  0
  -27.0300   13.4920  -11.2150 O   0  0  0  0  0  0  0  0  0  0  0  0
  -26.9650   13.7450  -13.5330 O   0  0  0  0  0  0  0  0  0  0  0  0
  -22.1730   18.7520  -10.6270 C   0  0  1  0  0  0  0  0  0  0  0  0
  -20.9310   18.3750  -11.4540 C   0  0  2  0  0  0  0  0  0  0  0  0
  -23.9510   19.8340  -10.9490 H   0  0  0  0  0  0  0  0  0  0  0  0
  -22.9480   19.8190  -12.2660 H   0  0  0  0  0  0  0  0  0  0  0  0
  -22.5720   19.0110   -8.5180 H   0  0  0  0  0  0  0  0  0  0  0  0
  -20.8420   19.0360   -8.9490 H   0  0  0  0  0  0  0  0  0  0  0  0
  -22.5990   21.2850   -8.6520 H   0  0  0  0  0  0  0  0  0  0  0  0
  -20.8990   21.2920   -9.2050 H   0  0  0  0  0  0  0  0  0  0  0  0
  -21.5000   21.4140  -11.4240 H   0  0  0  0  0  0  0  0  0  0  0  0
  -23.0790   21.9680  -10.7950 H   0  0  0  0  0  0  0  0  0  0  0  0
  -22.6610   16.8280   -9.7560 H   0  0  0  0  0  0  0  0  0  0  0  0
  -24.0480   17.6810  -10.4840 H   0  0  0  0  0  0  0  0  0  0  0  0
  -23.4040   17.1730  -12.6570 H   0  0  0  0  0  0  0  0  0  0  0  0
  -24.8270   15.3230  -13.0510 H   0  0  0  0  0  0  0  0  0  0  0  0
  -25.1190   15.2650  -11.3040 H   0  0  0  0  0  0  0  0  0  0  0  0
  -22.4440   14.7280  -12.6210 H   0  0  0  0  0  0  0  0  0  0  0  0
  -22.7630   14.8460  -10.8840 H   0  0  0  0  0  0  0  0  0  0  0  0
  -24.4130   12.8710  -11.3030 H   0  0  0  0  0  0  0  0  0  0  0  0
  -24.2230   12.9530  -13.0700 H   0  0  0  0  0  0  0  0  0  0  0  0
  -20.6590   19.2070  -12.1040 H   0  0  0  0  0  0  0  0  0  0  0  0
  -20.1020   18.1500  -10.7830 H   0  0  0  0  0  0  0  0  0  0  0  0
  -21.8840   17.9180  -14.0900 H   0  0  0  0  0  0  0  0  0  0  0  0
  -20.2450   17.9220  -13.9070 H   0  0  0  0  0  0  0  0  0  0  0  0
  -21.0320   16.5150  -14.2510 H   0  0  0  0  0  0  0  0  0  0  0  0
  -27.0340   11.2710  -11.8720 H   0  0  0  0  0  0  0  0  0  0  0  0
  -26.5910   14.2410  -10.8050 H   0  0  0  0  0  0  0  0  0  0  0  0
  -26.3180   14.2310  -14.0490 H   0  0  0  0  0  0  0  0  0  0  0  0
 15 14  1  0
 15 16  1  6
 15 17  1  0
 15 18  1  0
 11  6  1  0
 11  9  1  1
 11 12  1  0
 11 20  1  0
  9  8  2  0
  9 10  1  0
  7 13  1  0
  7 14  1  0
  7 32  1  6
  7 33  1  0
 14 36  1  1
 14 37  1  0
 19 20  1  6
 20 38  1  6
 20 39  1  0
 19  1  1  0
 19  2  1  0
 19  5  1  0
  2  3  1  0
  2 23  1  1
  2 24  1  0
  3  4  1  0
  3 25  1  1
  3 26  1  0
  4  1  1  0
  4 27  1  6
  4 28  1  0
  5  6  1  0
  5 29  1  1
  5 30  1  0
  6 13  1  0
  6 31  1  6
 13 34  1  6
 13 35  1  0
 12 40  1  6
  1 21  1  1
 22  1  1  0
 41 12  1  0
 42 12  1  0
 44 17  1  0
 45 18  1  0
 43 16  1  0
M  CHG  4   1   1  10  -1  12   1  15  -1
M  END
