4xud_43H_ligand
     RDKit          3D

 36 38  0  0  0  0  0  0  0  0999 V2000
   -7.2470    2.0050  -24.5430 N   0  0  0  0  0  0  0  0  0  0  0  0
   -7.8830    4.0360  -23.4630 C   0  0  0  0  0  0  0  0  0  0  0  0
   -7.1430    4.6280  -21.3680 O   0  0  0  0  0  0  0  0  0  0  0  0
   -7.9410    3.1660  -24.5440 C   0  0  0  0  0  0  0  0  0  0  0  0
   -6.5050    1.6850  -23.4560 C   0  0  0  0  0  0  0  0  0  0  0  0
   -6.3970    2.5150  -22.3410 C   0  0  0  0  0  0  0  0  0  0  0  0
   -7.1040    3.7210  -22.3420 C   0  0  0  0  0  0  0  0  0  0  0  0
   -8.5610    5.1810  -23.4260 O   0  0  0  0  0  0  0  0  0  0  0  0
   -7.3540    1.1850  -25.6110 C   0  0  0  0  0  0  0  0  0  0  0  0
   -7.5750   -0.1860  -25.4170 C   0  0  0  0  0  0  0  0  0  0  0  0
   -7.7060   -1.0600  -26.4910 C   0  0  0  0  0  0  0  0  0  0  0  0
   -7.6250   -0.5770  -27.8080 C   0  0  0  0  0  0  0  0  0  0  0  0
   -7.4220    0.7940  -28.0230 C   0  0  0  0  0  0  0  0  0  0  0  0
   -7.2930    1.6600  -26.9280 C   0  0  0  0  0  0  0  0  0  0  0  0
   -5.4220    3.0010  -19.9000 O   0  0  0  0  0  0  0  0  0  0  0  0
   -4.8810    0.8200  -20.9940 O   0  0  0  0  0  0  0  0  0  0  0  0
   -7.3440    1.3020  -29.4300 C   0  0  0  0  0  0  0  0  0  0  0  0
   -6.4270    2.2920  -29.7750 C   0  0  0  0  0  0  0  0  0  0  0  0
   -6.3420    2.7710  -31.0890 C   0  0  0  0  0  0  0  0  0  0  0  0
   -7.1910    2.2330  -32.0630 C   0  0  0  0  0  0  0  0  0  0  0  0
   -8.1240    1.2410  -31.7180 C   0  0  0  0  0  0  0  0  0  0  0  0
   -8.2020    0.7750  -30.3990 C   0  0  0  0  0  0  0  0  0  0  0  0
   -5.5800    2.1530  -21.1230 B   0  0  0  0  0  0  0  0  0  0  0  0
   -8.5500    3.4200  -25.3990 H   0  0  0  0  0  0  0  0  0  0  0  0
   -5.9730    0.7450  -23.4530 H   0  0  0  0  0  0  0  0  0  0  0  0
   -7.6450   -0.5720  -24.4110 H   0  0  0  0  0  0  0  0  0  0  0  0
   -7.8700   -2.1120  -26.3120 H   0  0  0  0  0  0  0  0  0  0  0  0
   -7.7180   -1.2530  -28.6450 H   0  0  0  0  0  0  0  0  0  0  0  0
   -7.1440    2.7150  -27.1030 H   0  0  0  0  0  0  0  0  0  0  0  0
   -6.1550    2.8400  -19.3010 H   0  0  0  0  0  0  0  0  0  0  0  0
   -5.5020    0.1130  -21.1820 H   0  0  0  0  0  0  0  0  0  0  0  0
   -5.7710    2.6970  -29.0180 H   0  0  0  0  0  0  0  0  0  0  0  0
   -5.6320    3.5430  -31.3460 H   0  0  0  0  0  0  0  0  0  0  0  0
   -7.1290    2.5820  -33.0830 H   0  0  0  0  0  0  0  0  0  0  0  0
   -8.7830    0.8360  -32.4720 H   0  0  0  0  0  0  0  0  0  0  0  0
   -8.9200    0.0140  -30.1330 H   0  0  0  0  0  0  0  0  0  0  0  0
  1  4  1  0
  1  5  1  0
  1  9  1  0
  2  4  2  0
  2  7  1  0
  2  8  1  0
  3  7  2  0
  4 24  1  0
  5  6  2  0
  5 25  1  0
  6  7  1  0
  6 23  1  0
  9 10  2  0
  9 14  1  0
 10 11  1  0
 10 26  1  0
 11 12  2  0
 11 27  1  0
 12 13  1  0
 12 28  1  0
 13 14  2  0
 13 17  1  0
 14 29  1  0
 15 23  1  0
 15 30  1  0
 16 23  1  0
 16 31  1  0
 17 18  2  0
 17 22  1  0
 18 19  1  0
 18 32  1  0
 19 20  2  0
 19 33  1  0
 20 21  1  0
 20 34  1  0
 21 22  2  0
 21 35  1  0
 22 36  1  0
M  CHG  1   8  -1
M  END
