REMARK  5 active torsions:
REMARK  status: ('A' for Active; 'I' for Inactive)
REMARK    1  A    between atoms: C5_5  and  O11_11 
REMARK    2  A    between atoms: O11_11  and  C28_13 
REMARK    3  A    between atoms: C28_13  and  C30_15 
REMARK    4  A    between atoms: C30_15  and  C31_16 
REMARK    5  A    between atoms: C30_15  and  C32_17 
ROOT
HETATM    1  C28 0HK A1203     181.979  25.653 527.298  1.00 56.58     0.309 C 
HETATM    2  O29 0HK A1203     181.323  24.808 527.837  1.00 56.97    -0.261 OA
ENDROOT
BRANCH   1   3
HETATM    3  O11 0HK A1203     181.498  26.774 526.754  1.00 58.30    -0.302 OA
BRANCH   3   4
HETATM    4  C5  0HK A1203     180.069  27.081 526.838  1.00 60.44     0.128 C 
HETATM    5  C4  0HK A1203     179.747  28.143 525.788  1.00 57.95     0.064 C 
HETATM    6  C3  0HK A1203     179.786  29.610 526.272  1.00 58.10     0.220 C 
HETATM    7  N2  0HK A1203     178.859  29.755 527.488  1.00 56.65    -0.002 N 
HETATM    8  C9  0HK A1203     181.185  29.838 526.849  1.00 61.01     0.173 A 
HETATM    9  C1  0HK A1203     177.448  29.258 527.271  1.00 55.05     0.250 C 
HETATM   10  C7  0HK A1203     179.700  29.008 528.546  1.00 58.23     0.220 C 
HETATM   11  C12 0HK A1203     178.427  31.157 527.853  1.00 40.48     0.250 C 
HETATM   12  C6  0HK A1203     179.655  27.497 528.248  1.00 60.10     0.064 C 
HETATM   13  C8  0HK A1203     181.133  29.457 528.254  1.00 60.73     0.173 A 
HETATM   14  O10 0HK A1203     181.364  30.832 527.881  1.00 61.96    -0.350 OA
ENDBRANCH   3   4
ENDBRANCH   1   3
BRANCH   1  15
HETATM   15  C30 0HK A1203     183.516  25.611 527.136  1.00 59.33     0.252 C 
HETATM   16  O33 0HK A1203     183.984  24.404 527.711  1.00 51.36    -0.206 OA
BRANCH  15  17
HETATM   17  C31 0HK A1203     183.959  25.672 525.669  1.00 65.21     0.048 A 
HETATM   18  C34 0HK A1203     183.594  26.528 524.622  1.00 49.04     0.006 A 
HETATM   19  C35 0HK A1203     184.279  26.253 523.428  1.00 57.73     0.007 A 
HETATM   20  C36 0HK A1203     185.135  25.225 523.561  1.00 70.66     0.035 A 
HETATM   21  S37 0HK A1203     185.139  24.557 525.119  1.00 75.99    -0.087 SA
ENDBRANCH  15  17
BRANCH  15  22
HETATM   22  C32 0HK A1203     184.125  26.781 527.911  1.00 58.31     0.048 A 
HETATM   23  C41 0HK A1203     184.480  28.062 527.490  1.00 37.65     0.006 A 
HETATM   24  C42 0HK A1203     185.003  28.852 528.548  1.00 51.01     0.007 A 
HETATM   25  C43 0HK A1203     185.043  28.188 529.722  1.00 60.94     0.035 A 
HETATM   26  S44 0HK A1203     184.451  26.588 529.594  1.00 71.91    -0.087 SA
ENDBRANCH  15  22
ENDBRANCH   1  15
TORSDOF 5
