4hxq_X8A_ligand
     RDKit          3D

 53 53  0  0  0  0  0  0  0  0999 V2000
  -19.9800   15.9630  -10.4950 O   0  0  0  0  0  0  0  0  0  0  0  0
  -20.2280   16.3940  -11.6250 C   0  0  0  0  0  0  0  0  0  0  0  0
  -19.5570   15.9790  -12.5890 O   0  0  0  0  0  0  0  0  0  0  0  0
  -21.3240   17.4270  -11.8700 C   0  0  1  0  0  0  0  0  0  0  0  0
  -21.3190   17.8040  -13.2820 N   0  0  2  0  0  0  0  0  0  0  0  0
  -22.3250   18.6340  -13.9260 C   0  0  2  0  0  0  0  0  0  0  0  0
  -22.7030   16.8710  -11.5170 C   0  0  2  0  0  0  0  0  0  0  0  0
  -22.9470   15.4360  -11.9760 C   0  0  1  0  0  0  0  0  0  0  0  0
  -24.4050   14.9910  -11.8310 C   0  0  1  0  0  0  0  0  0  0  0  0
  -24.6010   13.5360  -12.2480 C   0  0  1  0  0  0  0  0  0  0  0  0
  -26.1210   13.0630  -12.3330 B   0  0  1  0  0  0  0  0  0  0  0  0
  -26.6270   13.6730  -13.6250 O   0  0  0  0  0  0  0  0  0  0  0  0
  -26.3980   11.6190  -12.6610 O   0  0  0  0  0  0  0  0  0  0  0  0
  -27.0820   13.6250  -11.3290 O   0  0  0  0  0  0  0  0  0  0  0  0
  -21.0870   18.6470  -10.9800 C   0  0  1  0  0  0  0  0  0  0  0  0
  -19.7740   19.3590  -11.2980 C   0  0  1  0  0  0  0  0  0  0  0  0
  -19.8410   20.7660  -10.8370 N   0  0  1  0  0  0  0  0  0  0  0  0
  -20.0740   20.8340   -9.3920 C   0  0  1  0  0  0  0  0  0  0  0  0
  -20.3450   22.2740   -9.0000 C   0  0  1  0  0  0  0  0  0  0  0  0
  -19.1750   23.1800   -9.3640 C   0  0  1  0  0  0  0  0  0  0  0  0
  -18.8160   22.9880  -10.8300 C   0  0  2  0  0  0  0  0  0  0  0  0
  -18.6150   21.5110  -11.1500 C   0  0  2  0  0  0  0  0  0  0  0  0
  -21.3210   16.9330  -13.7930 H   0  0  0  0  0  0  0  0  0  0  0  0
  -20.4260   18.2420  -13.4610 H   0  0  0  0  0  0  0  0  0  0  0  0
  -23.4550   17.5090  -11.9810 H   0  0  0  0  0  0  0  0  0  0  0  0
  -22.8290   16.9160  -10.4350 H   0  0  0  0  0  0  0  0  0  0  0  0
  -22.6640   15.3560  -13.0260 H   0  0  0  0  0  0  0  0  0  0  0  0
  -22.3160   14.7680  -11.3900 H   0  0  0  0  0  0  0  0  0  0  0  0
  -24.7050   15.1020  -10.7890 H   0  0  0  0  0  0  0  0  0  0  0  0
  -25.0350   15.6270  -12.4530 H   0  0  0  0  0  0  0  0  0  0  0  0
  -24.1490   13.4010  -13.2310 H   0  0  0  0  0  0  0  0  0  0  0  0
  -24.0790   12.8980  -11.5350 H   0  0  0  0  0  0  0  0  0  0  0  0
  -21.9080   19.3490  -11.1240 H   0  0  0  0  0  0  0  0  0  0  0  0
  -21.0730   18.3270   -9.9380 H   0  0  0  0  0  0  0  0  0  0  0  0
  -18.9550   18.8510  -10.7900 H   0  0  0  0  0  0  0  0  0  0  0  0
  -19.6020   19.3380  -12.3740 H   0  0  0  0  0  0  0  0  0  0  0  0
  -20.6140   21.2170  -11.3050 H   0  0  0  0  0  0  0  0  0  0  0  0
  -20.9340   20.2170   -9.1320 H   0  0  0  0  0  0  0  0  0  0  0  0
  -19.1920   20.4720   -8.8630 H   0  0  0  0  0  0  0  0  0  0  0  0
  -21.2370   22.6210   -9.5210 H   0  0  0  0  0  0  0  0  0  0  0  0
  -20.5160   22.3260   -7.9250 H   0  0  0  0  0  0  0  0  0  0  0  0
  -19.4550   24.2190   -9.1920 H   0  0  0  0  0  0  0  0  0  0  0  0
  -18.3150   22.9290   -8.7440 H   0  0  0  0  0  0  0  0  0  0  0  0
  -17.8950   23.5290  -11.0460 H   0  0  0  0  0  0  0  0  0  0  0  0
  -19.6190   23.3840  -11.4510 H   0  0  0  0  0  0  0  0  0  0  0  0
  -18.3830   21.3980  -12.2090 H   0  0  0  0  0  0  0  0  0  0  0  0
  -17.7910   21.1200  -10.5540 H   0  0  0  0  0  0  0  0  0  0  0  0
  -25.5690   11.1650  -12.8300 H   0  0  0  0  0  0  0  0  0  0  0  0
  -27.4470   12.9110  -10.8010 H   0  0  0  0  0  0  0  0  0  0  0  0
  -25.8830   13.9880  -14.1430 H   0  0  0  0  0  0  0  0  0  0  0  0
  -21.8790   19.1540  -14.7740 H   0  0  0  0  0  0  0  0  0  0  0  0
  -22.7050   19.3640  -13.2120 H   0  0  0  0  0  0  0  0  0  0  0  0
  -23.1450   18.0060  -14.2740 H   0  0  0  0  0  0  0  0  0  0  0  0
 11 10  1  0
 11 12  1  6
 11 13  1  0
 11 14  1  0
  4  2  1  6
  4  5  1  0
  4  7  1  0
  4 15  1  0
 15 16  1  0
 15 33  1  1
 15 34  1  0
 16 17  1  0
 16 35  1  1
 16 36  1  0
 22 17  1  0
 22 21  1  0
 22 46  1  6
 22 47  1  0
 21 20  1  0
 21 44  1  6
 21 45  1  0
 20 19  1  0
 20 42  1  6
 20 43  1  0
 19 18  1  0
 19 40  1  6
 19 41  1  0
 18 17  1  0
 18 38  1  6
 18 39  1  0
  6  5  1  0
  6 51  1  6
  6 52  1  0
  6 53  1  0
  7  8  1  0
  7 25  1  6
  7 26  1  0
  8  9  1  0
  8 27  1  6
  8 28  1  0
  9 10  1  0
  9 29  1  1
  9 30  1  0
 10 31  1  6
 10 32  1  0
  2  1  2  0
  2  3  1  0
 17 37  1  6
 49 14  1  0
 48 13  1  0
 50 12  1  0
  5 23  1  6
 24  5  1  0
M  CHG  4   3  -1   5   1  11  -1  17   1
M  END
