6ibv_H9E_ligand
     RDKit          3D

 30 31  0  0  0  0  0  0  0  0999 V2000
   -7.5540    0.1090  -17.6430 C   0  0  0  0  0  0  0  0  0  0  0  0
   -7.1880    0.7090  -16.2970 C   0  0  1  0  0  0  0  0  0  0  0  0
   -8.1100    1.7600  -15.6350 C   0  0  0  0  0  0  0  0  0  0  0  0
   -8.0050    2.5670  -14.2470 C   0  0  2  0  0  0  0  0  0  0  0  0
  -11.1160    4.4270  -12.4970 O   0  0  0  0  0  0  0  0  0  0  0  0
   -8.6210    3.9880  -11.5050 O   0  0  0  0  0  0  0  0  0  0  0  0
   -9.3390    2.1840  -16.3010 C   0  0  0  0  0  0  0  0  0  0  0  0
   -9.7210    1.5770  -17.6750 C   0  0  1  0  0  0  0  0  0  0  0  0
   -8.8250    0.5440  -18.3350 C   0  0  2  0  0  0  0  0  0  0  0  0
   -6.6420   -0.9290  -18.2940 C   0  0  2  0  0  0  0  0  0  0  0  0
   -9.1630    3.4450  -14.1160 C   0  0  0  0  0  0  0  0  0  0  0  0
   -9.4870    4.4710  -12.8430 B   0  0  1  0  0  0  0  0  0  0  0  0
   -9.0490    6.0230  -13.2580 O   0  0  0  0  0  0  0  0  0  0  0  0
  -10.0410    3.2430  -15.3870 S   0  0  0  0  0  0  0  0  0  0  0  0
   -6.4470   -2.0410  -17.3810 Br  0  0  0  0  0  0  0  0  0  0  0  0
   -7.0060    0.9060  -18.1480 H   0  0  0  0  0  0  0  0  0  0  0  0
   -7.1050   -0.1210  -15.5950 H   0  0  0  0  0  0  0  0  0  0  0  0
   -6.1980    1.1560  -16.3950 H   0  0  0  0  0  0  0  0  0  0  0  0
   -7.0920    3.1630  -14.2390 H   0  0  0  0  0  0  0  0  0  0  0  0
   -7.9860    1.8610  -13.4150 H   0  0  0  0  0  0  0  0  0  0  0  0
  -10.6980    1.1080  -17.5500 H   0  0  0  0  0  0  0  0  0  0  0  0
   -9.8420    2.4020  -18.3760 H   0  0  0  0  0  0  0  0  0  0  0  0
   -9.4290   -0.3520  -18.4800 H   0  0  0  0  0  0  0  0  0  0  0  0
   -8.5530    0.9230  -19.3190 H   0  0  0  0  0  0  0  0  0  0  0  0
   -5.6790   -0.4740  -18.5240 H   0  0  0  0  0  0  0  0  0  0  0  0
   -7.1020   -1.2910  -19.2140 H   0  0  0  0  0  0  0  0  0  0  0  0
   -8.6170    4.2420  -14.6200 H   0  0  0  0  0  0  0  0  0  0  0  0
  -11.5770    3.9450  -13.1880 H   0  0  0  0  0  0  0  0  0  0  0  0
   -8.2190    4.7550  -11.0910 H   0  0  0  0  0  0  0  0  0  0  0  0
   -8.8450    6.0590  -14.1960 H   0  0  0  0  0  0  0  0  0  0  0  0
 12  5  1  1
 12  6  1  0
 12 11  1  0
 12 13  1  0
 15 10  1  0
  1  2  1  0
  1  9  1  0
  1 10  1  0
  1 16  1  0
  2  3  1  0
  2 17  1  1
  2 18  1  0
  3  4  1  0
  3  7  2  0
  4 11  1  0
  4 19  1  6
  4 20  1  0
 11 14  1  0
 11 27  1  0
  7  8  1  0
  7 14  1  0
  8  9  1  0
  8 21  1  1
  8 22  1  0
  9 23  1  6
  9 24  1  0
 10 25  1  6
 10 26  1  0
 30 13  1  0
 28  5  1  0
 29  6  1  0
M  CHG  1  12  -1
M  END
