4IU0_ABH_ligand
     RDKit          3D

 28 27  0  0  0  0  0  0  0  0999 V2000
  -24.9660    0.5390   33.1610 N   0  0  1  0  0  0  0  0  0  0  0  0
  -24.9760    0.3410   31.7010 C   0  0  2  0  0  0  0  0  0  0  0  0
  -26.3720   -0.0460   31.2350 C   0  0  0  0  0  0  0  0  0  0  0  0
  -27.2620   -0.2290   32.0420 O   0  0  0  0  0  0  0  0  0  0  0  0
  -26.6260   -0.1810   29.9260 O   0  0  0  0  0  0  0  0  0  0  0  0
  -23.9250   -0.7130   31.2770 C   0  0  1  0  0  0  0  0  0  0  0  0
  -24.1710   -2.0790   31.9580 C   0  0  1  0  0  0  0  0  0  0  0  0
  -23.0860   -3.0800   31.5370 C   0  0  2  0  0  0  0  0  0  0  0  0
  -23.5000   -4.5090   31.9450 C   0  0  1  0  0  0  0  0  0  0  0  0
  -22.2150   -5.4120   32.3270 B   0  0  2  0  0  0  0  0  0  0  0  0
  -22.5980   -6.7270   32.4220 O   0  0  0  0  0  0  0  0  0  0  0  0
  -21.7130   -5.0000   33.5380 O   0  0  0  0  0  0  0  0  0  0  0  0
  -21.2350   -5.2990   31.3650 O   0  0  0  0  0  0  0  0  0  0  0  0
  -24.7130    1.2880   31.2310 H   0  0  0  0  0  0  0  0  0  0  0  0
  -23.9750   -0.8450   30.1960 H   0  0  0  0  0  0  0  0  0  0  0  0
  -22.9320   -0.3540   31.5460 H   0  0  0  0  0  0  0  0  0  0  0  0
  -24.1440   -1.9520   33.0410 H   0  0  0  0  0  0  0  0  0  0  0  0
  -25.1490   -2.4600   31.6640 H   0  0  0  0  0  0  0  0  0  0  0  0
  -22.1470   -2.8220   32.0270 H   0  0  0  0  0  0  0  0  0  0  0  0
  -22.9540   -3.0360   30.4560 H   0  0  0  0  0  0  0  0  0  0  0  0
  -24.1630   -4.4530   32.8080 H   0  0  0  0  0  0  0  0  0  0  0  0
  -24.0320   -4.9770   31.1160 H   0  0  0  0  0  0  0  0  0  0  0  0
  -22.2320   -7.2220   31.6850 H   0  0  0  0  0  0  0  0  0  0  0  0
  -25.5520    1.3260   33.3990 H   0  0  0  0  0  0  0  0  0  0  0  0
  -25.3180   -0.2920   33.6160 H   0  0  0  0  0  0  0  0  0  0  0  0
  -24.0210    0.7170   33.4700 H   0  0  0  0  0  0  0  0  0  0  0  0
  -22.3330   -4.3950   33.9520 H   0  0  0  0  0  0  0  0  0  0  0  0
  -20.7040   -4.5180   31.5390 H   0  0  0  0  0  0  0  0  0  0  0  0
 10  9  1  0
 10 11  1  1
 10 12  1  0
 10 13  1  0
  3  2  1  0
  3  4  2  0
  3  5  1  0
  2 14  1  6
  2  1  1  0
  2  6  1  0
  6 15  1  6
  6 16  1  0
  6  7  1  0
  8  9  1  0
  8 19  1  1
  8 20  1  0
  8  7  1  0
  9 21  1  1
  9 22  1  0
  7 17  1  1
  7 18  1  0
  1 24  1  6
 27 12  1  0
 23 11  1  0
 25  1  1  0
 28 13  1  0
 26  1  1  0
M  CHG  2   1   1  10  -1
M  END
