6xvh
     RDKit          3D

 20 20  0  0  0  0  0  0  0  0999 V2000
   -5.4850   -0.6150   16.0080 N   0  0  0  0  0  0  0  0  0  0  0  0
   -5.9980    0.7620   16.7630 S   0  0  2  0  0  0  0  0  0  0  0  0
   -5.6130    0.7670   18.1390 O   0  0  0  0  0  0  0  0  0  0  0  0
   -7.4100    0.9290   16.6290 O   0  0  0  0  0  0  0  0  0  0  0  0
   -5.1110    2.2410   15.8650 C   0  0  0  0  0  0  0  0  0  0  0  0
   -5.8560    3.2980   15.2760 C   0  0  0  0  0  0  0  0  0  0  0  0
   -5.1950    4.4000   14.6050 C   0  0  0  0  0  0  0  0  0  0  0  0
   -3.7870    4.4540   14.5200 C   0  0  0  0  0  0  0  0  0  0  0  0
   -3.0360    3.4080   15.1040 C   0  0  0  0  0  0  0  0  0  0  0  0
   -3.6980    2.3070   15.7730 C   0  0  0  0  0  0  0  0  0  0  0  0
   -3.0580    5.6670   13.7830 B   0  0  0  0  0  0  0  0  0  0  0  0
   -3.7450    6.7470   13.2660 O   0  0  0  0  0  0  0  0  0  0  0  0
   -1.6980    5.6700   13.5560 O   0  0  0  0  0  0  0  0  0  0  0  0
   -6.9350    3.2800   15.3280 H   0  0  0  0  0  0  0  0  0  0  0  0
   -5.7870    5.1890   14.1660 H   0  0  0  0  0  0  0  0  0  0  0  0
   -1.9570    3.4300   15.0520 H   0  0  0  0  0  0  0  0  0  0  0  0
   -3.1020    1.5190   16.2100 H   0  0  0  0  0  0  0  0  0  0  0  0
   -4.9890   -1.1960   16.6680 H   0  0  0  0  0  0  0  0  0  0  0  0
   -4.3470    6.4440   12.5810 H   0  0  0  0  0  0  0  0  0  0  0  0
   -1.4550    4.8870   13.0580 H   0  0  0  0  0  0  0  0  0  0  0  0
 11  8  1  0
 11 12  1  0
 11 13  1  0
  5  2  1  0
  5  6  2  0
  5 10  1  0
  6  7  1  0
  6 14  1  0
  7  8  2  0
  7 15  1  0
  8  9  1  0
  9 10  2  0
  9 16  1  0
 10 17  1  0
 18  1  1  0
 19 12  1  0
 20 13  1  0
  2  1  1  6
  3  2  2  0
  4  2  2  0
M  END
