REMARK  7 active torsions:
REMARK  status: ('A' for Active; 'I' for Inactive)
REMARK    1  A    between atoms: N03_1  and  C04_4 
REMARK       I    between atoms: N03_1  and  C02_3 
REMARK    2  A    between atoms: N03_1  and  C20_21 
REMARK    3  A    between atoms: C02_3  and  C30_31 
REMARK    4  A    between atoms: C04_4  and  C14_5 
REMARK    5  A    between atoms: C04_4  and  C05_11 
REMARK       I    between atoms: C05_11  and  N06_12 
REMARK    6  A    between atoms: N06_12  and  C07_15 
REMARK    7  A    between atoms: C23_24  and  C24_27 
ROOT
HETATM    1  N03 X77 A 402       8.778   3.663  21.922  1.00 23.51    -0.294 N 
HETATM    2  O01 X77 A 402       7.915   1.617  22.431  1.00 22.53    -0.265 OA
HETATM    3  C02 X77 A 402       8.900   2.226  22.232  1.00 27.30     0.277 C 
ENDROOT
BRANCH   1   4
HETATM    4  C04 X77 A 402       7.445   4.260  21.970  1.00 24.70     0.220 C 
BRANCH   4   5
HETATM    5  C14 X77 A 402       6.368   3.757  21.035  1.00 18.08    -0.008 A 
HETATM    6  C19 X77 A 402       6.576   3.467  19.708  1.00 19.96     0.126 A 
HETATM    7  N18 X77 A 402       5.549   3.067  18.939  1.00 19.91    -0.272 NA
HETATM    8  C17 X77 A 402       4.316   2.934  19.480  1.00 18.99     0.116 A 
HETATM    9  C16 X77 A 402       4.086   3.234  20.814  1.00 18.51     0.020 A 
HETATM   10  C15 X77 A 402       5.128   3.649  21.583  1.00 20.07     0.012 A 
ENDBRANCH   4   5
BRANCH   4  11
HETATM   11  C05 X77 A 402       7.616   5.777  21.653  1.00 26.65     0.246 C 
HETATM   12  N06 X77 A 402       7.604   6.822  22.718  1.00 31.13    -0.354 N 
HETATM   13 1H06 X77 A 402       7.485   6.594  23.539  1.00 37.36     0.162 HD
HETATM   14  O13 X77 A 402       7.776   6.113  20.518  1.00 19.06    -0.271 OA
BRANCH  12  15
HETATM   15  C07 X77 A 402       7.791   8.230  22.374  1.00 39.72     0.084 C 
HETATM   16  C12 X77 A 402       9.247   8.457  21.915  1.00 42.68     0.025 C 
HETATM   17  C11 X77 A 402       9.652   9.933  21.730  1.00 40.91     0.002 C 
HETATM   18  C10 X77 A 402       9.127  10.881  22.789  1.00 46.83     0.000 C 
HETATM   19  C09 X77 A 402       7.740  10.580  23.274  1.00 49.17     0.002 C 
HETATM   20  C08 X77 A 402       7.536   9.096  23.596  1.00 45.57     0.025 C 
ENDBRANCH  12  15
ENDBRANCH   4  11
ENDBRANCH   1   4
BRANCH   1  21
HETATM   21  C20 X77 A 402       9.984   4.525  21.707  1.00 21.20     0.038 A 
HETATM   22  C29 X77 A 402      10.521   4.796  20.445  1.00 18.37     0.030 A 
HETATM   23  C28 X77 A 402      11.664   5.617  20.338  1.00 22.69     0.010 A 
HETATM   24  C23 X77 A 402      12.268   6.148  21.484  1.00 24.31    -0.051 A 
HETATM   25  C22 X77 A 402      11.735   5.866  22.739  1.00 23.35     0.010 A 
HETATM   26  C21 X77 A 402      10.592   5.052  22.848  1.00 21.72     0.030 A 
BRANCH  24  27
HETATM   27  C24 X77 A 402      13.543   7.051  21.359  1.00 33.06    -0.024 C 
HETATM   28  C27 X77 A 402      13.284   8.388  22.052  1.00 38.37     0.019 C 
HETATM   29  C25 X77 A 402      13.901   7.294  19.893  1.00 32.72     0.019 C 
HETATM   30  C26 X77 A 402      14.726   6.336  22.038  1.00 32.74     0.019 C 
ENDBRANCH  24  27
ENDBRANCH   1  21
BRANCH   3  31
HETATM   31  C30 X77 A 402      10.239   1.466  22.262  1.00 24.73     0.119 A 
HETATM   32  C31 X77 A 402      11.524   1.967  22.189  1.00 22.89     0.153 A 
HETATM   33  N32 X77 A 402      12.347   0.941  22.252  1.00 25.45    -0.254 NA
HETATM   34  C33 X77 A 402      11.616  -0.167  22.366  1.00 27.17     0.207 A 
HETATM   35  N34 X77 A 402      10.318   0.157  22.373  1.00 26.98    -0.345 N 
HETATM   36  H34 X77 A 402       9.542  -0.483  22.449  1.00  0.00     0.167 HD
ENDBRANCH   3  31
TORSDOF 7
