4ixu
     RDKit          3D

 61 63  0  0  0  0  0  0  0  0999 V2000
   28.2770   86.9730   76.8930 Cl  0  0  0  0  0  0  0  0  0  0  0  0
   29.5440   85.7110   76.9430 C   0  0  0  0  0  0  0  0  0  0  0  0
   29.9140   85.0610   78.1160 C   0  0  0  0  0  0  0  0  0  0  0  0
   29.1510   85.4280   79.6950 Cl  0  0  0  0  0  0  0  0  0  0  0  0
   30.9000   84.0840   78.0980 C   0  0  0  0  0  0  0  0  0  0  0  0
   31.5180   83.7560   76.9070 C   0  0  0  0  0  0  0  0  0  0  0  0
   30.1640   85.3850   75.7530 C   0  0  0  0  0  0  0  0  0  0  0  0
   31.1420   84.4100   75.7430 C   0  0  0  0  0  0  0  0  0  0  0  0
   31.8320   84.0550   74.4660 C   0  0  0  0  0  0  0  0  0  0  0  0
   33.2430   84.3720   74.7390 N   0  0  1  0  0  4  0  0  0  0  0  0
   34.1680   84.0500   73.6610 C   0  0  2  0  0  0  0  0  0  0  0  0
   35.4830   84.5730   74.2230 C   0  0  0  0  0  0  0  0  0  0  0  0
   35.0830   85.5990   75.2830 C   0  0  0  0  0  0  0  0  0  0  0  0
   33.5850   85.7610   75.1140 C   0  0  1  0  0  0  0  0  0  0  0  0
   33.4260   86.8230   74.0210 C   0  0  0  0  0  0  0  0  0  0  0  0
   33.8120   84.8350   72.4070 C   0  0  0  0  0  0  0  0  0  0  0  0
   33.2710   86.2640   72.6040 C   0  0  2  0  0  0  0  0  0  0  0  0
   33.6710   87.1590   71.4250 C   0  0  2  0  0  0  0  0  0  0  0  0
   34.0660   88.5920   71.7350 C   0  0  0  0  0  0  0  0  0  0  0  0
   35.1430   88.8500   72.3320 O   0  0  0  0  0  0  0  0  0  0  0  0
   33.2950   89.5020   71.3380 O   0  0  0  0  0  1  0  0  0  0  0  0
   32.3970   87.2050   70.6970 N   0  0  0  0  0  4  0  0  0  0  0  0
   34.7780   86.4670   70.6200 C   0  0  0  0  0  0  0  0  0  0  0  0
   35.2300   87.2160   69.3870 C   0  0  0  0  0  0  0  0  0  0  0  0
   36.3970   86.5250   68.6710 C   0  0  0  0  0  0  0  0  0  0  0  0
   36.8260   87.4160   67.5010 C   0  0  0  0  0  0  0  0  0  0  0  0
   37.3460   86.5320   66.2930 B   0  0  0  0  0  4  0  0  0  0  0  0
   37.9020   87.5840   65.3040 O   0  0  0  0  0  0  0  0  0  0  0  0
   38.5650   85.7010   66.5830 O   0  0  0  0  0  0  0  0  0  0  0  0
   36.3010   85.9150   65.4110 O   0  0  0  0  0  0  0  0  0  0  0  0
   31.1840   83.5830   79.0120 H   0  0  0  0  0  0  0  0  0  0  0  0
   32.2870   82.9980   76.8820 H   0  0  0  0  0  0  0  0  0  0  0  0
   29.8870   85.8890   74.8380 H   0  0  0  0  0  0  0  0  0  0  0  0
   31.7070   82.9960   74.2370 H   0  0  0  0  0  0  0  0  0  0  0  0
   31.4550   84.6680   73.6470 H   0  0  0  0  0  0  0  0  0  0  0  0
   33.5130   83.7950   75.5220 H   0  0  0  0  0  0  0  0  0  0  0  0
   34.2090   82.9780   73.4690 H   0  0  0  0  0  0  0  0  0  0  0  0
   36.0740   85.0450   73.4370 H   0  0  0  0  0  0  0  0  0  0  0  0
   36.0470   83.7600   74.6800 H   0  0  0  0  0  0  0  0  0  0  0  0
   35.3190   85.2310   76.2820 H   0  0  0  0  0  0  0  0  0  0  0  0
   35.5880   86.5470   75.1000 H   0  0  0  0  0  0  0  0  0  0  0  0
   33.1010   86.0600   76.0430 H   0  0  0  0  0  0  0  0  0  0  0  0
   32.5410   87.4160   74.2500 H   0  0  0  0  0  0  0  0  0  0  0  0
   34.2980   87.4770   74.0420 H   0  0  0  0  0  0  0  0  0  0  0  0
   34.7120   84.9060   71.7970 H   0  0  0  0  0  0  0  0  0  0  0  0
   33.0680   84.2640   71.8500 H   0  0  0  0  0  0  0  0  0  0  0  0
   32.1930   86.1510   72.4880 H   0  0  0  0  0  0  0  0  0  0  0  0
   34.4080   85.4900   70.3060 H   0  0  0  0  0  0  0  0  0  0  0  0
   35.6390   86.3190   71.2720 H   0  0  0  0  0  0  0  0  0  0  0  0
   34.3900   87.2890   68.6960 H   0  0  0  0  0  0  0  0  0  0  0  0
   35.5380   88.2210   69.6770 H   0  0  0  0  0  0  0  0  0  0  0  0
   37.2300   86.3950   69.3610 H   0  0  0  0  0  0  0  0  0  0  0  0
   36.0750   85.5550   68.2950 H   0  0  0  0  0  0  0  0  0  0  0  0
   35.9740   88.0090   67.1700 H   0  0  0  0  0  0  0  0  0  0  0  0
   37.6240   88.0820   67.8290 H   0  0  0  0  0  0  0  0  0  0  0  0
   31.6440   87.3820   71.3460 H   0  0  0  0  0  0  0  0  0  0  0  0
   32.2420   86.3200   70.2340 H   0  0  0  0  0  0  0  0  0  0  0  0
   32.4290   87.9440   70.0090 H   0  0  0  0  0  0  0  0  0  0  0  0
   37.5930   88.4570   65.5580 H   0  0  0  0  0  0  0  0  0  0  0  0
   35.4320   86.2200   65.6840 H   0  0  0  0  0  0  0  0  0  0  0  0
   39.2920   86.2760   66.8320 H   0  0  0  0  0  0  0  0  0  0  0  0
 27 26  1  0
 27 28  1  0
 27 29  1  0
 27 30  1  0
 18 19  1  0
 19 20  2  0
 19 21  1  0
 26 25  1  0
 26 54  1  0
 26 55  1  0
 15 14  1  0
 15 17  1  0
 15 43  1  0
 15 44  1  0
 14 10  1  0
 14 13  1  0
 14 42  1  1
 11 10  1  0
 11 12  1  0
 11 16  1  0
 11 37  1  6
 16 17  1  0
 16 45  1  0
 16 46  1  0
 12 13  1  0
 12 38  1  0
 12 39  1  0
 13 40  1  0
 13 41  1  0
  9  8  1  0
  9 10  1  0
  9 34  1  0
  9 35  1  0
  8  6  1  0
  8  7  2  0
  6  5  2  0
  6 32  1  0
  5  3  1  0
  5 31  1  0
  3  2  2  0
  3  4  1  0
  2  1  1  0
  2  7  1  0
  7 33  1  0
 18 17  1  0
 18 23  1  6
 18 22  1  0
 23 24  1  0
 23 48  1  0
 23 49  1  0
 17 47  1  6
 24 25  1  0
 24 50  1  0
 24 51  1  0
 25 52  1  0
 25 53  1  0
 60 30  1  0
 61 29  1  0
 10 36  1  1
 59 28  1  0
 22 56  1  0
 57 22  1  0
 58 22  1  0
M  CHG  4  10   1  21  -1  22   1  27  -1
M  END
