3mtl_FEF_ligand
     RDKit          3D

 46 49  0  0  0  0  0  0  0  0999 V2000
   -6.5730  -25.6230   12.5520 O   0  0  0  0  0  0  0  0  0  0  0  0
   -7.6780  -25.0640   12.5040 C   0  0  0  0  0  0  0  0  0  0  0  0
   -8.6310  -25.0670   13.5220 C   0  0  0  0  0  0  0  0  0  0  0  0
   -9.6650  -24.2320   13.0810 C   0  0  0  0  0  0  0  0  0  0  0  0
  -10.9150  -23.8370   13.5890 C   0  0  0  0  0  0  0  0  0  0  0  0
  -11.7640  -22.9940   12.8580 C   0  0  0  0  0  0  0  0  0  0  0  0
  -11.3760  -22.5360   11.5920 C   0  0  0  0  0  0  0  0  0  0  0  0
  -10.1360  -22.9330   11.0750 C   0  0  0  0  0  0  0  0  0  0  0  0
   -9.2810  -23.7710   11.8120 C   0  0  0  0  0  0  0  0  0  0  0  0
   -8.0540  -24.2350   11.5390 N   0  0  0  0  0  0  0  0  0  0  0  0
   -8.4250  -25.7250   14.7570 C   0  0  0  0  0  0  0  0  0  0  0  0
   -9.2400  -25.7420   15.8980 C   0  0  0  0  0  0  0  0  0  0  0  0
   -8.5750  -26.4800   16.8800 C   0  0  0  0  0  0  0  0  0  0  0  0
   -8.8840  -26.8820   18.1850 C   0  0  0  0  0  0  0  0  0  0  0  0
   -7.9610  -27.6130   18.9390 C   0  0  0  0  0  0  0  0  0  0  0  0
   -6.7350  -27.9910   18.3820 C   0  0  0  0  0  0  0  0  0  0  0  0
   -6.4370  -27.6030   17.0750 C   0  0  0  0  0  0  0  0  0  0  0  0
   -7.3570  -26.8540   16.3240 C   0  0  0  0  0  0  0  0  0  0  0  0
   -7.2980  -26.3720   15.0780 N   0  0  0  0  0  0  0  0  0  0  0  0
  -10.4680  -25.2260   16.0290 N   0  0  0  0  0  0  0  0  0  0  0  0
  -11.1760  -25.2900   17.1940 O   0  0  0  0  0  0  0  0  0  0  0  0
  -11.6420  -23.9960   17.6120 C   0  0  0  0  0  0  0  0  0  0  0  0
  -13.0670  -24.1630   18.1720 C   0  0  0  0  0  0  0  0  0  0  0  0
  -13.5260  -22.9630   19.0150 C   0  0  1  0  0  0  0  0  0  0  0  0
  -14.8930  -23.1330   19.4020 O   0  0  0  0  0  0  0  0  0  0  0  0
  -12.6580  -22.8300   20.2670 C   0  0  0  0  0  0  0  0  0  0  0  0
  -12.7990  -23.9910   21.0860 O   0  0  0  0  0  0  0  0  0  0  0  0
  -11.2260  -24.1900   14.5610 H   0  0  0  0  0  0  0  0  0  0  0  0
  -12.7170  -22.6980   13.2710 H   0  0  0  0  0  0  0  0  0  0  0  0
  -12.0240  -21.8850   11.0230 H   0  0  0  0  0  0  0  0  0  0  0  0
   -9.8340  -22.5910   10.0960 H   0  0  0  0  0  0  0  0  0  0  0  0
   -9.8420  -26.6260   18.6130 H   0  0  0  0  0  0  0  0  0  0  0  0
   -8.1950  -27.8880   19.9570 H   0  0  0  0  0  0  0  0  0  0  0  0
   -6.0300  -28.5740   18.9540 H   0  0  0  0  0  0  0  0  0  0  0  0
   -5.4890  -27.8800   16.6370 H   0  0  0  0  0  0  0  0  0  0  0  0
  -10.9850  -23.5980   18.3850 H   0  0  0  0  0  0  0  0  0  0  0  0
  -11.6590  -23.3180   16.7590 H   0  0  0  0  0  0  0  0  0  0  0  0
  -13.7570  -24.2850   17.3370 H   0  0  0  0  0  0  0  0  0  0  0  0
  -13.1000  -25.0610   18.7900 H   0  0  0  0  0  0  0  0  0  0  0  0
  -13.4350  -22.0550   18.4190 H   0  0  0  0  0  0  0  0  0  0  0  0
  -12.9710  -21.9510   20.8310 H   0  0  0  0  0  0  0  0  0  0  0  0
  -11.6140  -22.7190   19.9730 H   0  0  0  0  0  0  0  0  0  0  0  0
  -15.0470  -24.0500   19.6400 H   0  0  0  0  0  0  0  0  0  0  0  0
  -13.7170  -24.0890   21.3470 H   0  0  0  0  0  0  0  0  0  0  0  0
   -7.4923  -23.9875   10.7118 H   0  0  0  0  0  0  0  0  0  0  0  0
   -6.4910  -26.4839   14.4478 H   0  0  0  0  0  0  0  0  0  0  0  0
 15 14  1  0
 15 16  2  0
 15 33  1  0
 16 17  1  0
 16 34  1  0
 14 13  2  0
 14 32  1  0
 13 18  1  0
 13 12  1  0
 18 17  2  0
 18 19  1  0
 17 35  1  0
 12 11  1  0
 12 20  2  3
 11  3  2  3
 11 19  1  0
 22 23  1  0
 22 21  1  0
 22 36  1  0
 22 37  1  0
 23 24  1  0
 23 38  1  0
 23 39  1  0
 24 25  1  0
 24 26  1  0
 24 40  1  6
 26 27  1  0
 26 41  1  0
 26 42  1  0
  3  2  1  0
  3  4  1  0
  4  5  2  0
  4  9  1  0
  2  1  2  0
  2 10  1  0
  9  8  2  0
  9 10  1  0
  5  6  1  0
  5 28  1  0
  6  7  2  0
  6 29  1  0
  7  8  1  0
  7 30  1  0
  8 31  1  0
 44 27  1  0
 43 25  1  0
 20 21  1  0
 10 45  1  0
 19 46  1  0
M  END
