6jn6
     RDKit          3D

 39 40  0  0  0  0  0  0  0  0999 V2000
  -28.7370   12.8990   66.5690 C   0  0  0  0  0  0  0  0  0  0  0  0
  -27.3610   11.9930   68.1160 C   0  0  0  0  0  0  0  0  0  0  0  0
  -28.5620   11.8030   67.4450 C   0  0  0  0  0  0  0  0  0  0  0  0
  -27.6450   13.7110   66.7190 C   0  0  0  0  0  0  0  0  0  0  0  0
  -29.5430   10.6600   67.6350 C   0  0  1  0  0  0  0  0  0  0  0  0
  -30.1970   10.8070   69.0120 C   0  0  1  0  0  0  0  0  0  0  0  0
  -31.1140   11.9710   69.0900 N   0  0  0  0  0  0  0  0  0  0  0  0
  -30.7270   13.3320   69.5060 C   0  0  0  0  0  0  0  0  0  0  0  0
  -29.6180   13.6340   69.8060 O   0  0  0  0  0  0  0  0  0  0  0  0
  -31.7720   14.4470   69.5700 C   0  0  1  0  0  0  0  0  0  0  0  0
  -31.6790   15.2420   70.8940 C   0  0  1  0  0  0  0  0  0  0  0  0
  -32.1950   14.2020   72.2910 S   0  0  0  0  0  0  0  0  0  0  0  0
  -31.5230   15.4030   68.4030 C   0  0  1  0  0  0  0  0  0  0  0  0
  -30.9330    9.4280   69.2870 B   0  0  0  0  0  0  0  0  0  0  0  0
  -30.2570    8.2790   69.0710 O   0  0  0  0  0  0  0  0  0  0  0  0
  -32.2780    9.3550   69.3050 O   0  0  0  0  0  0  0  0  0  0  0  0
  -26.8130   13.1420   67.6680 O   0  0  0  0  0  0  0  0  0  0  0  0
  -29.7570   13.2320   65.6530 C   0  0  0  0  0  0  0  0  0  0  0  0
  -29.6460   14.4010   64.9100 C   0  0  0  0  0  0  0  0  0  0  0  0
  -28.5390   15.2340   65.0560 C   0  0  0  0  0  0  0  0  0  0  0  0
  -27.5340   14.8990   65.9540 C   0  0  0  0  0  0  0  0  0  0  0  0
  -26.9400   11.3370   68.8640 H   0  0  0  0  0  0  0  0  0  0  0  0
  -30.3070   10.6980   66.8590 H   0  0  0  0  0  0  0  0  0  0  0  0
  -29.0130    9.7090   67.5810 H   0  0  0  0  0  0  0  0  0  0  0  0
  -29.4110   10.9350   69.7570 H   0  0  0  0  0  0  0  0  0  0  0  0
  -32.0800   11.8190   68.8380 H   0  0  0  0  0  0  0  0  0  0  0  0
  -32.7680   14.0150   69.4770 H   0  0  0  0  0  0  0  0  0  0  0  0
  -30.6490   15.5650   71.0480 H   0  0  0  0  0  0  0  0  0  0  0  0
  -32.3270   16.1160   70.8360 H   0  0  0  0  0  0  0  0  0  0  0  0
  -30.6140   12.5860   65.5310 H   0  0  0  0  0  0  0  0  0  0  0  0
  -30.4260   14.6670   64.2120 H   0  0  0  0  0  0  0  0  0  0  0  0
  -28.4620   16.1390   64.4720 H   0  0  0  0  0  0  0  0  0  0  0  0
  -26.6730   15.5400   66.0690 H   0  0  0  0  0  0  0  0  0  0  0  0
  -31.3940   13.1360   72.3730 H   0  0  0  0  0  0  0  0  0  0  0  0
  -30.3560    8.0170   68.1530 H   0  0  0  0  0  0  0  0  0  0  0  0
  -32.6070    9.2910   68.4050 H   0  0  0  0  0  0  0  0  0  0  0  0
  -30.8620   16.2070   68.7260 H   0  0  0  0  0  0  0  0  0  0  0  0
  -31.0580   14.8590   67.5810 H   0  0  0  0  0  0  0  0  0  0  0  0
  -32.4710   15.8240   68.0700 H   0  0  0  0  0  0  0  0  0  0  0  0
 14  6  1  0
 14 15  1  0
 14 16  1  0
  5  3  1  0
  5  6  1  0
  5 23  1  6
  5 24  1  0
  3  1  1  0
  3  2  2  0
  2 17  1  0
  2 22  1  0
  4  1  2  0
  4 17  1  0
  4 21  1  0
  1 18  1  0
 18 19  2  0
 18 30  1  0
 19 20  1  0
 19 31  1  0
  6  7  1  0
  6 25  1  1
 20 21  2  0
 20 32  1  0
 21 33  1  0
  8  7  1  0
  8  9  2  0
  8 10  1  0
 10 11  1  0
 10 13  1  0
 10 27  1  6
 11 12  1  0
 11 28  1  1
 11 29  1  0
 13 37  1  1
 13 38  1  0
 13 39  1  0
 35 15  1  0
 36 16  1  0
 26  7  1  0
 34 12  1  0
M  END
