5u48_S4B_ligand
     RDKit          3D

 32 33  0  0  0  0  0  0  0  0999 V2000
  -22.5730   -0.9950  -30.6240 C   0  0  0  0  0  0  0  0  0  0  0  0
  -21.6080   -0.1960  -30.0310 C   0  0  0  0  0  0  0  0  0  0  0  0
  -21.5480   -0.0900  -28.6450 C   0  0  0  0  0  0  0  0  0  0  0  0
  -22.4560   -0.7800  -27.8590 C   0  0  0  0  0  0  0  0  0  0  0  0
  -23.4140   -1.5840  -28.4570 C   0  0  0  0  0  0  0  0  0  0  0  0
  -23.4760   -1.6890  -29.8370 C   0  0  0  0  0  0  0  0  0  0  0  0
  -22.4060   -0.6960  -26.3450 C   0  0  0  0  0  0  0  0  0  0  0  0
  -21.4850   -0.0580  -25.6090 C   0  0  0  0  0  0  0  0  0  0  0  0
  -21.4680   -0.0160  -24.0950 C   0  0  0  0  0  0  0  0  0  0  0  0
  -21.1300    1.1420  -23.4160 C   0  0  0  0  0  0  0  0  0  0  0  0
  -21.1200    1.1570  -22.0280 C   0  0  0  0  0  0  0  0  0  0  0  0
  -21.4380    0.0210  -21.3030 C   0  0  0  0  0  0  0  0  0  0  0  0
  -21.7650   -1.1350  -21.9870 C   0  0  0  0  0  0  0  0  0  0  0  0
  -21.7830   -1.1560  -23.3740 C   0  0  0  0  0  0  0  0  0  0  0  0
  -22.0920   -2.2960  -21.2760 O   0  0  0  0  0  0  0  0  0  0  0  0
  -20.7770    2.3360  -21.3540 O   0  0  0  0  0  0  0  0  0  0  0  0
  -23.7670   -1.8170  -32.8650 O   0  0  0  0  0  0  0  0  0  0  0  0
  -21.6240   -0.6040  -33.0900 O   0  0  0  0  0  0  0  0  0  0  0  0
  -22.6590   -1.1420  -32.2670 B   0  0  0  0  0  0  0  0  0  0  0  0
  -20.9030    0.3440  -30.6450 H   0  0  0  0  0  0  0  0  0  0  0  0
  -20.7940    0.5300  -28.1820 H   0  0  0  0  0  0  0  0  0  0  0  0
  -24.1150   -2.1310  -27.8440 H   0  0  0  0  0  0  0  0  0  0  0  0
  -24.2280   -2.3120  -30.2980 H   0  0  0  0  0  0  0  0  0  0  0  0
  -23.1930   -1.2020  -25.8050 H   0  0  0  0  0  0  0  0  0  0  0  0
  -20.6980    0.4640  -26.1330 H   0  0  0  0  0  0  0  0  0  0  0  0
  -20.8740    2.0350  -23.9670 H   0  0  0  0  0  0  0  0  0  0  0  0
  -21.4310    0.0380  -20.2230 H   0  0  0  0  0  0  0  0  0  0  0  0
  -22.0440   -2.0660  -23.8940 H   0  0  0  0  0  0  0  0  0  0  0  0
  -20.9060    2.2150  -20.4100 H   0  0  0  0  0  0  0  0  0  0  0  0
  -23.5360   -2.7350  -33.0230 H   0  0  0  0  0  0  0  0  0  0  0  0
  -21.0170   -1.3040  -33.3400 H   0  0  0  0  0  0  0  0  0  0  0  0
  -22.9870   -2.5650  -21.4970 H   0  0  0  0  0  0  0  0  0  0  0  0
 19  1  1  0
 19 17  1  0
 19 18  1  0
  1  2  2  0
  1  6  1  0
  2  3  1  0
  2 20  1  0
  3  4  2  0
  3 21  1  0
  4  5  1  0
  4  7  1  0
  5  6  2  0
  5 22  1  0
  6 23  1  0
  7  8  2  3
  7 24  1  0
  8  9  1  0
  8 25  1  0
  9 10  2  0
  9 14  1  0
 10 11  1  0
 10 26  1  0
 11 12  2  0
 11 16  1  0
 12 13  1  0
 12 27  1  0
 13 14  2  0
 13 15  1  0
 14 28  1  0
 32 15  1  0
 31 18  1  0
 29 16  1  0
 30 17  1  0
M  END
