3mnu_BON_ligand
     RDKit          3D

 38 39  0  0  0  0  0  0  0  0999 V2000
   -5.0350    6.8770   12.6790 B   0  0  0  0  0  0  0  0  0  0  0  0
   -4.7000    2.9870   14.6850 C   0  0  0  0  0  0  0  0  0  0  0  0
   -5.2300   -0.6310   16.1300 N   0  0  0  0  0  0  0  0  0  0  0  0
   -6.8580    1.2100   16.0640 O   0  0  0  0  0  0  0  0  0  0  0  0
   -5.4890    0.9080   16.3630 S   0  0  2  0  0  0  0  0  0  0  0  0
   -5.9570    3.6560   14.6490 C   0  0  0  0  0  0  0  0  0  0  0  0
   -4.5210    1.6990   15.2960 N   0  0  0  0  0  0  0  0  0  0  0  0
   -5.0090    1.2590   17.6670 O   0  0  0  0  0  0  0  0  0  0  0  0
   -6.0590    4.9150   14.0080 C   0  0  0  0  0  0  0  0  0  0  0  0
   -3.9810    7.7330   12.5110 O   0  0  0  0  0  0  0  0  0  0  0  0
   -4.9260    5.5080   13.4060 C   0  0  0  0  0  0  0  0  0  0  0  0
   -6.1850    7.3330   12.0990 O   0  0  0  0  0  0  0  0  0  0  0  0
   -3.6890    4.8460   13.4530 C   0  0  0  0  0  0  0  0  0  0  0  0
   -3.5680    3.5940   14.0860 C   0  0  0  0  0  0  0  0  0  0  0  0
   -4.2180    8.4890   11.2640 C   0  0  2  0  0  0  0  0  0  0  0  0
   -5.7900    8.2040   10.9680 C   0  0  2  0  0  0  0  0  0  0  0  0
   -3.2260    7.9560   10.2280 C   0  0  1  0  0  0  0  0  0  0  0  0
   -3.8420    9.9440   11.5550 C   0  0  2  0  0  0  0  0  0  0  0  0
   -6.7050    9.4210   11.0320 C   0  0  1  0  0  0  0  0  0  0  0  0
   -6.1040    7.4340    9.6790 C   0  0  1  0  0  0  0  0  0  0  0  0
   -6.8260    3.2070   15.1070 H   0  0  0  0  0  0  0  0  0  0  0  0
   -3.6780    1.2090   15.0320 H   0  0  0  0  0  0  0  0  0  0  0  0
   -7.0100    5.4260   13.9790 H   0  0  0  0  0  0  0  0  0  0  0  0
   -2.8210    5.3020   12.9990 H   0  0  0  0  0  0  0  0  0  0  0  0
   -2.6110    3.0950   14.1150 H   0  0  0  0  0  0  0  0  0  0  0  0
   -5.1240   -1.0930   17.0220 H   0  0  0  0  0  0  0  0  0  0  0  0
   -7.1820    7.3040    9.5860 H   0  0  0  0  0  0  0  0  0  0  0  0
   -5.7310    7.9940    8.8220 H   0  0  0  0  0  0  0  0  0  0  0  0
   -5.6220    6.4570    9.7130 H   0  0  0  0  0  0  0  0  0  0  0  0
   -7.7310    9.1160   10.8250 H   0  0  0  0  0  0  0  0  0  0  0  0
   -6.6510    9.8640   12.0270 H   0  0  0  0  0  0  0  0  0  0  0  0
   -6.3870   10.1540   10.2910 H   0  0  0  0  0  0  0  0  0  0  0  0
   -2.7690   10.0140   11.7310 H   0  0  0  0  0  0  0  0  0  0  0  0
   -4.3780   10.2880   12.4400 H   0  0  0  0  0  0  0  0  0  0  0  0
   -4.1120   10.5670   10.7020 H   0  0  0  0  0  0  0  0  0  0  0  0
   -2.2100    8.2060   10.5350 H   0  0  0  0  0  0  0  0  0  0  0  0
   -3.3260    6.8730   10.1530 H   0  0  0  0  0  0  0  0  0  0  0  0
   -3.4350    8.4090    9.2590 H   0  0  0  0  0  0  0  0  0  0  0  0
  1 10  1  0
  1 11  1  0
  1 12  1  0
  2  6  2  0
  2  7  1  0
  2 14  1  0
 18 15  1  0
 18 33  1  1
 18 34  1  0
 18 35  1  0
 19 16  1  0
 19 30  1  6
 19 31  1  0
 19 32  1  0
 20 16  1  0
 20 27  1  6
 20 28  1  0
 20 29  1  0
  6  9  1  0
  6 21  1  0
  9 11  2  0
  9 23  1  0
 11 13  1  0
 13 14  2  0
 13 24  1  0
 14 25  1  0
 15 10  1  1
 15 16  1  0
 15 17  1  0
 16 12  1  1
 17 36  1  1
 17 37  1  0
 17 38  1  0
 26  3  1  0
 22  7  1  0
  5  3  1  6
  7  5  1  0
  4  5  2  0
  8  5  2  0
M  CHG  1   3  -1
M  END
