5hja_XA2_ligand
     RDKit          3D

 57 58  0  0  0  0  0  0  0  0999 V2000
  -22.5080   -6.9520   32.4910 O   0  0  0  0  0  0  0  0  0  0  0  0
  -22.1100   -5.3430   32.3640 B   0  0  1  0  0  0  0  0  0  0  0  0
  -21.3990   -4.8900   33.7610 O   0  0  0  0  0  0  0  0  0  0  0  0
  -21.0100   -5.1950   31.0890 O   0  0  0  0  0  0  0  0  0  0  0  0
  -23.5200   -4.4340   32.0550 C   0  0  2  0  0  0  0  0  0  0  0  0
  -23.1200   -2.9840   31.9760 C   0  0  1  0  0  0  0  0  0  0  0  0
  -24.3730   -2.0330   31.9400 C   0  0  1  0  0  0  0  0  0  0  0  0
  -24.0660   -0.6920   31.1700 C   0  0  1  0  0  0  0  0  0  0  0  0
  -25.0870    0.4420   31.5360 C   0  0  1  0  0  0  0  0  0  0  0  0
  -25.2160    0.5360   32.9440 N   0  0  1  0  0  0  0  0  0  0  0  0
  -24.5500    1.7660   31.0000 C   0  0  1  0  0  0  0  0  0  0  0  0
  -25.5320    2.8440   31.2610 C   0  0  2  0  0  0  0  0  0  0  0  0
  -24.9740    4.1940   30.8570 C   0  0  1  0  0  0  0  0  0  0  0  0
  -23.6850    4.4550   31.5150 N   0  0  2  0  0  0  0  0  0  0  0  0
  -23.1930    5.7590   31.1300 C   0  0  2  0  0  0  0  0  0  0  0  0
  -21.9610    6.1490   31.9470 C   0  0  0  0  0  0  0  0  0  0  0  0
  -20.7570    6.3610   31.3090 C   0  0  0  0  0  0  0  0  0  0  0  0
  -19.6350    6.7220   32.0480 C   0  0  0  0  0  0  0  0  0  0  0  0
  -19.7270    6.8680   33.4130 C   0  0  0  0  0  0  0  0  0  0  0  0
  -18.3130    7.3230   34.3510 Cl  0  0  0  0  0  0  0  0  0  0  0  0
  -20.9420    6.6570   34.0550 C   0  0  0  0  0  0  0  0  0  0  0  0
  -21.0530    6.8460   35.7940 Cl  0  0  0  0  0  0  0  0  0  0  0  0
  -22.0580    6.3000   33.3230 C   0  0  0  0  0  0  0  0  0  0  0  0
  -22.6900    3.3870   31.2340 C   0  0  2  0  0  0  0  0  0  0  0  0
  -23.2340    2.0410   31.6320 C   0  0  2  0  0  0  0  0  0  0  0  0
  -26.4450    0.1200   30.9170 C   0  0  0  0  0  0  0  0  0  0  0  0
  -26.5550   -0.0260   29.6790 O   0  0  0  0  0  0  0  0  0  0  0  0
  -27.4620   -0.0060   31.6540 O   0  0  0  0  0  0  0  0  0  0  0  0
  -24.2390   -4.5780   32.8620 H   0  0  0  0  0  0  0  0  0  0  0  0
  -23.9610   -4.7470   31.1090 H   0  0  0  0  0  0  0  0  0  0  0  0
  -22.5150   -2.7370   32.8480 H   0  0  0  0  0  0  0  0  0  0  0  0
  -22.5270   -2.8270   31.0750 H   0  0  0  0  0  0  0  0  0  0  0  0
  -25.1930   -2.5480   31.4390 H   0  0  0  0  0  0  0  0  0  0  0  0
  -24.6710   -1.7970   32.9620 H   0  0  0  0  0  0  0  0  0  0  0  0
  -23.0610   -0.3590   31.4310 H   0  0  0  0  0  0  0  0  0  0  0  0
  -24.1120   -0.8790   30.0970 H   0  0  0  0  0  0  0  0  0  0  0  0
  -24.4080    1.6750   29.9230 H   0  0  0  0  0  0  0  0  0  0  0  0
  -25.7700    2.8600   32.3250 H   0  0  0  0  0  0  0  0  0  0  0  0
  -26.4410    2.6470   30.6930 H   0  0  0  0  0  0  0  0  0  0  0  0
  -24.8310    4.2110   29.7770 H   0  0  0  0  0  0  0  0  0  0  0  0
  -25.6830    4.9730   31.1370 H   0  0  0  0  0  0  0  0  0  0  0  0
  -23.8460    4.4700   32.5120 H   0  0  0  0  0  0  0  0  0  0  0  0
  -23.9770    6.4980   31.2950 H   0  0  0  0  0  0  0  0  0  0  0  0
  -22.9310    5.7450   30.0720 H   0  0  0  0  0  0  0  0  0  0  0  0
  -20.6850    6.2470   30.2370 H   0  0  0  0  0  0  0  0  0  0  0  0
  -18.6910    6.8880   31.5500 H   0  0  0  0  0  0  0  0  0  0  0  0
  -23.0030    6.1390   33.8200 H   0  0  0  0  0  0  0  0  0  0  0  0
  -21.7800    3.5870   31.7990 H   0  0  0  0  0  0  0  0  0  0  0  0
  -22.4590    3.3810   30.1690 H   0  0  0  0  0  0  0  0  0  0  0  0
  -22.5270    1.2700   31.3240 H   0  0  0  0  0  0  0  0  0  0  0  0
  -23.3460    2.0090   32.7160 H   0  0  0  0  0  0  0  0  0  0  0  0
  -22.1040   -7.4390   31.7700 H   0  0  0  0  0  0  0  0  0  0  0  0
  -25.7970    1.3290   33.1770 H   0  0  0  0  0  0  0  0  0  0  0  0
  -25.6400   -0.3080   33.3000 H   0  0  0  0  0  0  0  0  0  0  0  0
  -24.3030    0.6540   33.3580 H   0  0  0  0  0  0  0  0  0  0  0  0
  -21.1400   -4.3510   30.6500 H   0  0  0  0  0  0  0  0  0  0  0  0
  -21.9400   -4.2260   34.1940 H   0  0  0  0  0  0  0  0  0  0  0  0
  2  1  1  1
  2  3  1  0
  2  4  1  0
  2  5  1  0
  5  6  1  0
  5 29  1  1
  5 30  1  0
  6  7  1  0
  6 31  1  1
  6 32  1  0
  7  8  1  0
  7 33  1  6
  7 34  1  0
  8  9  1  0
  8 35  1  6
  8 36  1  0
  9 10  1  0
  9 11  1  0
  9 26  1  6
 11 12  1  0
 11 25  1  0
 11 37  1  6
 12 13  1  0
 12 38  1  1
 12 39  1  0
 13 14  1  0
 13 40  1  6
 13 41  1  0
 15 14  1  0
 15 16  1  0
 15 43  1  6
 15 44  1  0
 16 17  2  0
 16 23  1  0
 17 18  1  0
 17 45  1  0
 18 19  2  0
 18 46  1  0
 19 20  1  0
 19 21  1  0
 21 22  1  0
 21 23  2  0
 23 47  1  0
 24 14  1  0
 24 25  1  0
 24 48  1  1
 24 49  1  0
 25 50  1  6
 25 51  1  0
 26 27  2  0
 26 28  1  0
 52  1  1  0
 57  3  1  0
 56  4  1  0
 10 53  1  6
 54 10  1  0
 55 10  1  0
 14 42  1  1
M  CHG  4   2  -1  10   1  14   1  28  -1
M  END
