2zk6_C08_ligand
     RDKit          3D

 59 61  0  0  0  0  0  0  0  0999 V2000
   19.3140   64.0250   12.1300 C   0  0  0  0  0  0  0  0  0  0  0  0
   18.1580   63.6950   12.9040 C   0  0  0  0  0  0  0  0  0  0  0  0
   18.0500   63.4670   14.2380 C   0  0  0  0  0  0  0  0  0  0  0  0
   16.6610   63.2090   14.5350 C   0  0  0  0  0  0  0  0  0  0  0  0
   15.9510   63.2810   13.3740 C   0  0  0  0  0  0  0  0  0  0  0  0
   14.4730   63.1080   13.1250 C   0  0  2  0  0  0  0  0  0  0  0  0
   13.5740   62.8210   14.3220 C   0  0  1  0  0  0  0  0  0  0  0  0
   12.2460   62.2440   13.8260 C   0  0  1  0  0  0  0  0  0  0  0  0
   12.3720   60.7350   13.6060 C   0  0  1  0  0  0  0  0  0  0  0  0
   11.2400   59.9720   14.2730 C   0  0  1  0  0  0  0  0  0  0  0  0
   11.2460   60.1400   15.7990 C   0  0  2  0  0  0  0  0  0  0  0  0
    9.8330   60.4510   16.3100 C   0  0  2  0  0  0  0  0  0  0  0  0
    9.4470   59.5430   17.4550 C   0  0  1  0  0  0  0  0  0  0  0  0
   16.8790   63.5830   12.2910 N   0  0  0  0  0  0  0  0  0  0  0  0
   16.6010   64.7910   11.4210 B   0  0  1  0  0  0  0  0  0  0  0  0
   16.1720   65.8080   12.1090 F   0  0  0  0  0  0  0  0  0  0  0  0
   17.8030   65.1920   10.6670 N   0  0  0  0  0  0  0  0  0  0  0  0
   17.9070   65.9110    9.6190 C   0  0  0  0  0  0  0  0  0  0  0  0
   16.8290   66.5830    8.8280 C   0  0  1  0  0  0  0  0  0  0  0  0
   16.7960   68.1040    8.9090 C   0  0  2  0  0  0  0  0  0  0  0  0
   15.5030   68.5850    8.2800 C   0  0  1  0  0  0  0  0  0  0  0  0
   15.3490   70.0820    8.2840 C   0  0  2  0  0  0  0  0  0  0  0  0
   13.9330   70.5160    8.0480 C   0  0  0  0  0  0  0  0  0  0  0  0
   13.0450   69.8670    8.8420 O   0  0  0  0  0  0  0  0  0  0  0  0
   13.5630   71.3700    7.2760 O   0  0  0  0  0  0  0  0  0  0  0  0
   19.3190   66.0540    9.1660 C   0  0  0  0  0  0  0  0  0  0  0  0
   20.0130   65.3420   10.0760 C   0  0  0  0  0  0  0  0  0  0  0  0
   19.0900   64.7930   11.0390 C   0  0  0  0  0  0  0  0  0  0  0  0
   15.6710   64.3930   10.5820 F   0  0  0  0  0  0  0  0  0  0  0  0
   20.3030   63.6830   12.3990 H   0  0  0  0  0  0  0  0  0  0  0  0
   18.8610   63.4770   14.9520 H   0  0  0  0  0  0  0  0  0  0  0  0
   16.2530   62.9950   15.5120 H   0  0  0  0  0  0  0  0  0  0  0  0
   14.3570   62.2790   12.4270 H   0  0  0  0  0  0  0  0  0  0  0  0
   14.1060   64.0120   12.6380 H   0  0  0  0  0  0  0  0  0  0  0  0
   14.0610   62.1010   14.9800 H   0  0  0  0  0  0  0  0  0  0  0  0
   13.3880   63.7460   14.8680 H   0  0  0  0  0  0  0  0  0  0  0  0
   11.4710   62.4360   14.5680 H   0  0  0  0  0  0  0  0  0  0  0  0
   11.9720   62.7240   12.8860 H   0  0  0  0  0  0  0  0  0  0  0  0
   12.3520   60.5320   12.5350 H   0  0  0  0  0  0  0  0  0  0  0  0
   13.3220   60.3930   14.0160 H   0  0  0  0  0  0  0  0  0  0  0  0
   10.2910   60.3410   13.8830 H   0  0  0  0  0  0  0  0  0  0  0  0
   11.3350   58.9130   14.0320 H   0  0  0  0  0  0  0  0  0  0  0  0
   11.9130   60.9590   16.0670 H   0  0  0  0  0  0  0  0  0  0  0  0
   11.6020   59.2190   16.2620 H   0  0  0  0  0  0  0  0  0  0  0  0
    9.1230   60.3140   15.4940 H   0  0  0  0  0  0  0  0  0  0  0  0
    9.7950   61.4870   16.6470 H   0  0  0  0  0  0  0  0  0  0  0  0
   16.9610   66.3070    7.7820 H   0  0  0  0  0  0  0  0  0  0  0  0
   15.8660   66.2000    9.1660 H   0  0  0  0  0  0  0  0  0  0  0  0
   17.6460   68.5200    8.3690 H   0  0  0  0  0  0  0  0  0  0  0  0
   16.8350   68.4170    9.9520 H   0  0  0  0  0  0  0  0  0  0  0  0
   15.4730   68.2390    7.2470 H   0  0  0  0  0  0  0  0  0  0  0  0
   14.6650   68.1450    8.8210 H   0  0  0  0  0  0  0  0  0  0  0  0
   15.9780   70.5000    7.4980 H   0  0  0  0  0  0  0  0  0  0  0  0
   15.6820   70.4690    9.2470 H   0  0  0  0  0  0  0  0  0  0  0  0
   19.6960   66.5980    8.3130 H   0  0  0  0  0  0  0  0  0  0  0  0
   21.0840   65.2050   10.0830 H   0  0  0  0  0  0  0  0  0  0  0  0
    9.0260   60.1380   18.2650 H   0  0  0  0  0  0  0  0  0  0  0  0
    8.7060   58.8210   17.1120 H   0  0  0  0  0  0  0  0  0  0  0  0
   10.3300   59.0140   17.8130 H   0  0  0  0  0  0  0  0  0  0  0  0
 15 14  1  0
 15 16  1  1
 15 17  1  0
 15 29  1  0
  1  2  1  0
  1 28  2  0
  1 30  1  0
  2  3  2  0
  2 14  1  0
  3  4  1  0
  3 31  1  0
  4  5  2  0
  4 32  1  0
  5  6  1  0
  5 14  1  0
  6  7  1  0
  6 33  1  6
  6 34  1  0
  7  8  1  0
  7 35  1  1
  7 36  1  0
  8  9  1  0
  8 37  1  1
  8 38  1  0
  9 10  1  0
  9 39  1  6
  9 40  1  0
 10 11  1  0
 10 41  1  6
 10 42  1  0
 11 12  1  0
 11 43  1  6
 11 44  1  0
 12 13  1  0
 12 45  1  6
 12 46  1  0
 13 57  1  1
 13 58  1  0
 13 59  1  0
 18 17  2  0
 18 19  1  0
 18 26  1  0
 19 20  1  0
 19 47  1  6
 19 48  1  0
 20 21  1  0
 20 49  1  6
 20 50  1  0
 21 22  1  0
 21 51  1  6
 21 52  1  0
 22 23  1  0
 22 53  1  6
 22 54  1  0
 23 24  2  0
 23 25  1  0
 26 27  2  0
 26 55  1  0
 27 28  1  0
 27 56  1  0
 28 17  1  0
M  CHG  3  15  -1  17   1  25  -1
M  END
