5jws_6OQ_ligand
     RDKit          3D

 18 18  0  0  0  0  0  0  0  0999 V2000
  -32.8530    8.5150    1.3770 C   0  0  1  0  0  0  0  0  0  0  0  0
  -32.0800    7.5840    2.2600 C   0  0  2  0  0  0  0  0  0  0  0  0
  -33.6510    5.7740    3.1100 N   0  0  0  0  0  0  0  0  0  0  0  0
  -34.3470    5.2150    4.0490 C   0  0  0  0  0  0  0  0  0  0  0  0
  -34.4570    5.6600    5.3700 C   0  0  0  0  0  0  0  0  0  0  0  0
  -33.7970    6.7680    5.7880 C   0  0  0  0  0  0  0  0  0  0  0  0
  -32.9450    7.5170    4.8220 C   0  0  0  0  0  0  0  0  0  0  0  0
  -32.9370    6.8970    3.3810 B   0  0  0  0  0  0  0  0  0  0  0  0
  -32.3810    8.4100    5.0910 H   0  0  0  0  0  0  0  0  0  0  0  0
  -33.6390    5.3770    2.1810 H   0  0  0  0  0  0  0  0  0  0  0  0
  -34.8940    4.3210    3.7870 H   0  0  0  0  0  0  0  0  0  0  0  0
  -35.0760    5.1140    6.0670 H   0  0  0  0  0  0  0  0  0  0  0  0
  -33.8880    7.1040    6.8100 H   0  0  0  0  0  0  0  0  0  0  0  0
  -32.1720    9.2360    0.9250 H   0  0  0  0  0  0  0  0  0  0  0  0
  -33.3500    7.9430    0.5930 H   0  0  0  0  0  0  0  0  0  0  0  0
  -33.6000    9.0430    1.9710 H   0  0  0  0  0  0  0  0  0  0  0  0
  -31.2830    8.1520    2.7400 H   0  0  0  0  0  0  0  0  0  0  0  0
  -31.6310    6.8080    1.6400 H   0  0  0  0  0  0  0  0  0  0  0  0
  1  2  1  0
  1 14  1  6
  1 15  1  0
  1 16  1  0
  2  8  1  0
  2 17  1  1
  2 18  1  0
  3  4  1  0
  3  8  1  0
  3 10  1  0
  4  5  2  0
  4 11  1  0
  5  6  1  0
  5 12  1  0
  6  7  2  0
  6 13  1  0
  7  8  1  0
  7  9  1  0
M  END
