REMARK  3 active torsions:
REMARK  status: ('A' for Active; 'I' for Inactive)
REMARK    1  A    between atoms: C7_8  and  N1_9 
REMARK    2  A    between atoms: C9_11  and  C13_17 
REMARK    3  A    between atoms: C11_13  and  C12_14 
REMARK       I    between atoms: C12_14  and  N2_15 
ROOT
HETATM    1  N1  UNL     1      -0.816  -0.180   0.442  1.00  0.00    -0.316 N 
HETATM    2  C8  UNL     1       0.287   0.364  -0.109  1.00  0.00     0.111 A 
HETATM    3  C9  UNL     1       1.323   0.340   0.806  1.00  0.00     0.013 A 
HETATM    4  C10 UNL     1       0.828  -0.234   1.961  1.00  0.00     0.051 A 
HETATM    5  C11 UNL     1      -0.493  -0.556   1.701  1.00  0.00     0.108 A 
ENDROOT
BRANCH   3   6
HETATM    6  C13 UNL     1       2.702   0.832   0.618  1.00  0.00     0.098 A 
HETATM    7  N3  UNL     1       3.350   1.421   1.666  1.00  0.00    -0.237 NA
HETATM    8  C14 UNL     1       4.630   1.885   1.544  1.00  0.00     0.256 A 
HETATM    9  N4  UNL     1       5.293   1.742   0.360  1.00  0.00    -0.161 NA
HETATM   10  N5  UNL     1       4.671   1.155  -0.657  1.00  0.00    -0.242 N 
HETATM   11  C15 UNL     1       5.173   0.868  -1.871  1.00  0.00     0.119 A 
HETATM   12  C18 UNL     1       3.414   0.694  -0.584  1.00  0.00     0.087 A 
HETATM   13  C16 UNL     1       4.203   0.189  -2.596  1.00  0.00     0.022 A 
HETATM   14  C17 UNL     1       3.080   0.067  -1.777  1.00  0.00     0.035 A 
ENDBRANCH   3   6
BRANCH   1  15
HETATM   15  C7  UNL     1      -2.031  -0.450  -0.270  1.00  0.00     0.046 A 
HETATM   16  C2  UNL     1      -2.935   0.591  -0.585  1.00  0.00    -0.035 A 
HETATM   17  C1  UNL     1      -2.642   2.015  -0.186  1.00  0.00     0.050 C 
HETATM   18  C3  UNL     1      -4.128   0.284  -1.262  1.00  0.00     0.011 A 
HETATM   19  C4  UNL     1      -4.413  -1.036  -1.631  1.00  0.00     0.024 A 
HETATM   20  C5  UNL     1      -3.517  -2.064  -1.318  1.00  0.00     0.036 A 
HETATM   21 CL1  UNL     1      -3.876  -3.716  -1.789  1.00  0.00    -0.084 Cl
HETATM   22  C6  UNL     1      -2.333  -1.774  -0.635  1.00  0.00     0.054 A 
ENDBRANCH   1  15
BRANCH   5  23
HETATM   23  C12 UNL     1      -1.383  -1.244   2.670  1.00  0.00     0.266 C 
HETATM   24  N2  UNL     1      -2.809  -1.135   2.594  1.00  0.00    -0.365 N 
HETATM   25  H9  UNL     1      -3.274  -0.404   2.008  1.00  0.00     0.159 HD
HETATM   26  H10 UNL     1      -3.409  -1.660   3.271  1.00  0.00     0.159 HD
HETATM   27  O1  UNL     1      -0.865  -1.912   3.614  1.00  0.00    -0.266 OA
ENDBRANCH   5  23
TORSDOF 3
