5fqc_OK3_ligand
     RDKit          3D

 44 46  0  0  0  0  0  0  0  0999 V2000
  -23.1890   19.6180   70.6600 N   0  0  0  0  0  4  0  0  0  0  0  0
  -23.3490   18.2150   70.6510 C   0  0  0  0  0  0  0  0  0  0  0  0
  -24.8100   17.8800   70.4010 C   0  0  0  0  0  0  0  0  0  0  0  0
  -25.6150   17.4400   71.4470 C   0  0  0  0  0  0  0  0  0  0  0  0
  -26.9470   17.1470   71.1840 C   0  0  0  0  0  0  0  0  0  0  0  0
  -27.4230   17.2760   69.9040 C   0  0  0  0  0  0  0  0  0  0  0  0
  -26.6450   17.7210   68.8500 C   0  0  0  0  0  0  0  0  0  0  0  0
  -25.3170   18.0200   69.1000 C   0  0  0  0  0  0  0  0  0  0  0  0
  -28.8650   17.0110   69.6070 C   0  0  0  0  0  0  0  0  0  0  0  0
  -29.5140   17.7680   68.9080 O   0  0  0  0  0  0  0  0  0  0  0  0
  -29.4780   15.8970   70.2310 N   0  0  0  0  0  0  0  0  0  0  0  0
  -30.8990   15.5580   70.0600 C   0  0  1  0  0  0  0  0  0  0  0  0
  -31.1360   14.7120   68.8400 C   0  0  0  0  0  0  0  0  0  0  0  0
  -31.0580   13.2360   69.1920 C   0  0  0  0  0  0  0  0  0  0  0  0
  -31.5310   12.7700   70.3690 C   0  0  0  0  0  0  0  0  0  0  0  0
  -32.2110   13.7380   71.1890 O   0  0  0  0  0  0  0  0  0  0  0  0
  -31.3640   14.8260   71.4590 B   0  0  0  0  0  4  0  0  0  0  0  0
  -32.2700   15.7930   72.4270 O   0  0  0  0  0  0  0  0  0  0  0  0
  -30.2460   14.4690   72.5850 O   0  0  0  0  0  0  0  0  0  0  0  0
  -31.4380   11.4340   70.7310 C   0  0  0  0  0  0  0  0  0  0  0  0
  -30.7960   10.5320   69.9100 C   0  0  0  0  0  0  0  0  0  0  0  0
  -30.2890   11.0150   68.6960 C   0  0  0  0  0  0  0  0  0  0  0  0
  -30.4010   12.3830   68.3370 C   0  0  0  0  0  0  0  0  0  0  0  0
  -31.9380   10.9600   72.0620 C   0  0  0  0  0  0  0  0  0  0  0  0
  -31.3250   10.0010   72.5850 O   0  0  0  0  0  0  0  0  0  0  0  0
  -32.8290   11.5470   72.6970 O   0  0  0  0  0  1  0  0  0  0  0  0
  -22.7360   17.7830   69.8600 H   0  0  0  0  0  0  0  0  0  0  0  0
  -23.0420   17.8070   71.6140 H   0  0  0  0  0  0  0  0  0  0  0  0
  -25.2130   17.3280   72.4430 H   0  0  0  0  0  0  0  0  0  0  0  0
  -27.6010   16.8210   71.9790 H   0  0  0  0  0  0  0  0  0  0  0  0
  -27.0630   17.8330   67.8610 H   0  0  0  0  0  0  0  0  0  0  0  0
  -24.6750   18.3570   68.2990 H   0  0  0  0  0  0  0  0  0  0  0  0
  -28.9110   15.3070   70.8230 H   0  0  0  0  0  0  0  0  0  0  0  0
  -31.4640   16.4840   69.9520 H   0  0  0  0  0  0  0  0  0  0  0  0
  -32.1240   14.9340   68.4370 H   0  0  0  0  0  0  0  0  0  0  0  0
  -30.3810   14.9440   68.0890 H   0  0  0  0  0  0  0  0  0  0  0  0
  -30.6880    9.4950   70.1900 H   0  0  0  0  0  0  0  0  0  0  0  0
  -29.8020   10.3300   68.0180 H   0  0  0  0  0  0  0  0  0  0  0  0
  -29.9780   12.7460   67.4120 H   0  0  0  0  0  0  0  0  0  0  0  0
  -29.3780   14.7310   72.2680 H   0  0  0  0  0  0  0  0  0  0  0  0
  -22.2280   19.8490   70.4520 H   0  0  0  0  0  0  0  0  0  0  0  0
  -23.4320   19.9800   71.5710 H   0  0  0  0  0  0  0  0  0  0  0  0
  -23.7920   20.0300   69.9620 H   0  0  0  0  0  0  0  0  0  0  0  0
  -32.3510   16.6610   72.0270 H   0  0  0  0  0  0  0  0  0  0  0  0
 17 12  1  0
 17 16  1  0
 17 18  1  0
 17 19  1  0
  2  1  1  0
  2  3  1  0
  2 27  1  0
  2 28  1  0
  3  4  2  0
  3  8  1  0
  4  5  1  0
  4 29  1  0
  5  6  2  0
  5 30  1  0
  6  7  1  0
  6  9  1  0
  7  8  2  0
  7 31  1  0
  8 32  1  0
  9 10  2  0
  9 11  1  0
 12 11  1  0
 12 13  1  0
 12 34  1  6
 13 14  1  0
 13 35  1  0
 13 36  1  0
 14 15  2  0
 14 23  1  0
 15 16  1  0
 15 20  1  0
 20 21  2  0
 20 24  1  0
 21 22  1  0
 21 37  1  0
 22 23  2  0
 22 38  1  0
 23 39  1  0
 24 25  2  0
 24 26  1  0
  1 41  1  0
 42  1  1  0
 43  1  1  0
 33 11  1  0
 44 18  1  0
 40 19  1  0
M  CHG  3   1   1  17  -1  26  -1
M  END
