7k4k
     RDKit          3D

 39 40  0  0  0  0  0  0  0  0999 V2000
  -23.4830   19.2370  -11.6830 N   0  0  0  0  0  4  0  0  0  0  0  0
  -23.1870   18.8600  -10.2540 C   0  0  0  0  0  0  0  0  0  0  0  0
  -22.9300   17.3640  -10.2670 C   0  0  0  0  0  0  0  0  0  0  0  0
  -22.5980   16.9050  -11.7010 C   0  0  2  0  0  0  0  0  0  0  0  0
  -23.1090   15.4870  -12.0400 C   0  0  0  0  0  0  0  0  0  0  0  0
  -24.5470   15.0620  -11.7320 C   0  0  0  0  0  0  0  0  0  0  0  0
  -19.4490   15.4020  -12.5550 O   0  0  0  0  0  0  0  0  0  0  0  0
  -20.0930   16.0080  -11.7220 C   0  0  0  0  0  0  0  0  0  0  0  0
  -20.0250   15.7920  -10.4390 O   0  0  0  0  0  1  0  0  0  0  0  0
  -21.0860   17.1530  -12.0300 C   0  0  1  0  0  0  0  0  0  0  0  0
  -23.2650   18.0090  -12.5640 C   0  0  2  0  0  0  0  0  0  0  0  0
  -22.3330   18.2480  -13.7940 C   0  0  0  0  0  0  0  0  0  0  0  0
  -21.0810   17.4710  -13.4920 N   0  0  0  0  0  4  0  0  0  0  0  0
  -24.7700   13.5680  -11.9830 C   0  0  0  0  0  0  0  0  0  0  0  0
  -26.3050   13.2680  -12.2060 B   0  0  0  0  0  4  0  0  0  0  0  0
  -26.5450   11.8260  -12.2040 O   0  0  0  0  0  0  0  0  0  0  0  0
  -26.8270   13.7150  -13.5040 O   0  0  0  0  0  0  0  0  0  0  0  0
  -27.1870   13.7020  -11.1230 O   0  0  0  0  0  0  0  0  0  0  0  0
  -24.4400   19.5470  -11.7620 H   0  0  0  0  0  0  0  0  0  0  0  0
  -22.8610   19.9770  -11.9740 H   0  0  0  0  0  0  0  0  0  0  0  0
  -24.0390   19.0930   -9.6160 H   0  0  0  0  0  0  0  0  0  0  0  0
  -22.3010   19.3880   -9.9030 H   0  0  0  0  0  0  0  0  0  0  0  0
  -22.0910   17.1350   -9.6100 H   0  0  0  0  0  0  0  0  0  0  0  0
  -23.8190   16.8400   -9.9160 H   0  0  0  0  0  0  0  0  0  0  0  0
  -22.9730   15.3600  -13.1140 H   0  0  0  0  0  0  0  0  0  0  0  0
  -22.4470   14.7770  -11.5430 H   0  0  0  0  0  0  0  0  0  0  0  0
  -24.7610   15.2790  -10.6850 H   0  0  0  0  0  0  0  0  0  0  0  0
  -25.2290   15.6340  -12.3610 H   0  0  0  0  0  0  0  0  0  0  0  0
  -20.7610   18.0410  -11.4870 H   0  0  0  0  0  0  0  0  0  0  0  0
  -24.2320   17.6490  -12.9160 H   0  0  0  0  0  0  0  0  0  0  0  0
  -22.8010   17.8790  -14.7070 H   0  0  0  0  0  0  0  0  0  0  0  0
  -22.1030   19.3090  -13.8920 H   0  0  0  0  0  0  0  0  0  0  0  0
  -20.2680   18.0260  -13.7210 H   0  0  0  0  0  0  0  0  0  0  0  0
  -21.0720   16.6150  -14.0280 H   0  0  0  0  0  0  0  0  0  0  0  0
  -24.2130   13.2660  -12.8700 H   0  0  0  0  0  0  0  0  0  0  0  0
  -24.4130   13.0010  -11.1230 H   0  0  0  0  0  0  0  0  0  0  0  0
  -27.1030   11.5950  -11.4580 H   0  0  0  0  0  0  0  0  0  0  0  0
  -27.4720   12.9380  -10.6160 H   0  0  0  0  0  0  0  0  0  0  0  0
  -26.1150   14.1030  -14.0170 H   0  0  0  0  0  0  0  0  0  0  0  0
 15 14  1  0
 15 16  1  0
 15 17  1  0
 15 18  1  0
  8  7  2  0
  8  9  1  0
  8 10  1  0
  4 10  1  0
 10 13  1  0
 10 29  1  1
 12 11  1  0
 12 13  1  0
 12 31  1  0
 12 32  1  0
 11  1  1  0
 11  4  1  0
 11 30  1  6
  2  1  1  0
  2  3  1  0
  2 21  1  0
  2 22  1  0
  3  4  1  0
  3 23  1  0
  3 24  1  0
  4  5  1  6
  5  6  1  0
  5 25  1  0
  5 26  1  0
  6 14  1  0
  6 27  1  0
  6 28  1  0
 14 35  1  0
 14 36  1  0
 13 33  1  0
 34 13  1  0
  1 19  1  0
 20  1  1  0
 38 18  1  0
 39 17  1  0
 37 16  1  0
M  CHG  4   1   1   9  -1  13   1  15  -1
M  END
