6pht_OKP_ligand
     RDKit          3D

 36 35  0  0  0  0  0  0  0  0999 V2000
   27.8090   35.4360   73.4320 C   0  0  2  0  0  0  0  0  0  0  0  0
   26.6190   35.9910   74.1610 B   0  0  0  0  0  0  0  0  0  0  0  0
   34.3330   33.9620   72.0710 C   0  0  1  0  0  0  0  0  0  0  0  0
   34.1940   34.8460   73.2600 C   0  0  1  0  0  0  0  0  0  0  0  0
   33.3680   35.9630   72.9210 C   0  0  1  0  0  0  0  0  0  0  0  0
   31.1070   35.3490   72.5220 C   0  0  1  0  0  0  0  0  0  0  0  0
   30.0860   35.1620   71.4410 C   0  0  1  0  0  0  0  0  0  0  0  0
   29.0480   36.2050   71.5350 C   0  0  2  0  0  0  0  0  0  0  0  0
   28.7190   36.4550   72.9340 C   0  0  1  0  0  0  0  0  0  0  0  0
   33.7710   32.6970   72.2740 N   0  0  1  0  0  0  0  0  0  0  0  0
   32.3770   35.5280   71.9550 N   0  0  1  0  0  0  0  0  0  0  0  0
   26.3650   37.3120   74.0690 O   0  0  0  0  0  0  0  0  0  0  0  0
   25.8680   35.1510   74.8850 O   0  0  0  0  0  0  0  0  0  0  0  0
   27.4510   34.8510   72.5850 H   0  0  0  0  0  0  0  0  0  0  0  0
   28.3560   34.7770   74.1060 H   0  0  0  0  0  0  0  0  0  0  0  0
   33.8340   34.4340   71.2250 H   0  0  0  0  0  0  0  0  0  0  0  0
   35.3910   33.8460   71.8380 H   0  0  0  0  0  0  0  0  0  0  0  0
   33.7360   34.2890   74.0770 H   0  0  0  0  0  0  0  0  0  0  0  0
   35.1780   35.2000   73.5670 H   0  0  0  0  0  0  0  0  0  0  0  0
   32.8700   36.3360   73.8160 H   0  0  0  0  0  0  0  0  0  0  0  0
   33.9810   36.7530   72.4870 H   0  0  0  0  0  0  0  0  0  0  0  0
   30.8490   36.2270   73.1140 H   0  0  0  0  0  0  0  0  0  0  0  0
   31.1180   34.4690   73.1650 H   0  0  0  0  0  0  0  0  0  0  0  0
   30.5750   35.2270   70.4690 H   0  0  0  0  0  0  0  0  0  0  0  0
   29.6230   34.1810   71.5470 H   0  0  0  0  0  0  0  0  0  0  0  0
   28.1540   35.8730   71.0080 H   0  0  0  0  0  0  0  0  0  0  0  0
   29.4160   37.1240   71.0800 H   0  0  0  0  0  0  0  0  0  0  0  0
   28.2460   37.4330   73.0220 H   0  0  0  0  0  0  0  0  0  0  0  0
   29.6330   36.4430   73.5270 H   0  0  0  0  0  0  0  0  0  0  0  0
   32.3100   36.2240   71.2260 H   0  0  0  0  0  0  0  0  0  0  0  0
   32.6790   34.6550   71.5470 H   0  0  0  0  0  0  0  0  0  0  0  0
   24.9580   35.1940   74.5820 H   0  0  0  0  0  0  0  0  0  0  0  0
   25.5290   37.4460   73.6170 H   0  0  0  0  0  0  0  0  0  0  0  0
   33.8910   32.1370   71.4420 H   0  0  0  0  0  0  0  0  0  0  0  0
   34.2310   32.2460   73.0520 H   0  0  0  0  0  0  0  0  0  0  0  0
   32.7860   32.7950   72.4750 H   0  0  0  0  0  0  0  0  0  0  0  0
  2  1  1  0
  2 12  1  0
  2 13  1  0
  3  4  1  0
  3 10  1  0
  3 16  1  6
  3 17  1  0
  4  5  1  0
  4 18  1  1
  4 19  1  0
  5 11  1  0
  5 20  1  1
  5 21  1  0
  6  7  1  0
  6 11  1  0
  6 22  1  1
  6 23  1  0
  7  8  1  0
  7 24  1  6
  7 25  1  0
  8  9  1  0
  8 26  1  6
  8 27  1  0
  9  1  1  0
  9 28  1  6
  9 29  1  0
  1 14  1  6
  1 15  1  0
 10 34  1  6
 35 10  1  0
 36 10  1  0
 11 30  1  6
 31 11  1  0
 33 12  1  0
 32 13  1  0
M  CHG  2  10   1  11   1
M  END
