6v7d_QR4_ligand
     RDKit          3D

 42 43  0  0  0  0  0  0  0  0999 V2000
  -21.2210   17.4420  -13.7550 N   0  0  1  0  0  0  0  0  0  0  0  0
  -20.6290   20.0580   -9.7040 C   0  0  2  0  0  0  0  0  0  0  0  0
  -19.3880   15.7730  -12.6180 O   0  0  0  0  0  0  0  0  0  0  0  0
  -20.0370   18.9590  -10.5520 C   0  0  2  0  0  0  0  0  0  0  0  0
  -22.0910   19.7330   -9.6390 N   0  0  2  0  0  0  0  0  0  0  0  0
  -20.2560   15.9330  -10.5680 O   0  0  0  0  0  0  0  0  0  0  0  0
  -21.1340   18.6850  -11.6030 C   0  0  1  0  0  0  0  0  0  0  0  0
  -26.5900   11.6780  -12.5800 O   0  0  0  0  0  0  0  0  0  0  0  0
  -21.2960   17.2600  -12.2940 C   0  0  2  0  0  0  0  0  0  0  0  0
  -27.2270   13.5530  -11.3690 O   0  0  0  0  0  0  0  0  0  0  0  0
  -20.2120   16.2370  -11.8510 C   0  0  0  0  0  0  0  0  0  0  0  0
  -26.8400   13.8170  -13.6730 O   0  0  0  0  0  0  0  0  0  0  0  0
  -22.7580   16.7870  -11.8830 C   0  0  1  0  0  0  0  0  0  0  0  0
  -23.0360   15.2790  -11.7300 C   0  0  1  0  0  0  0  0  0  0  0  0
  -24.5270   14.9040  -11.7790 C   0  0  2  0  0  0  0  0  0  0  0  0
  -24.8040   13.4580  -12.1840 C   0  0  1  0  0  0  0  0  0  0  0  0
  -23.0240   17.5570  -10.5850 C   0  0  2  0  0  0  0  0  0  0  0  0
  -22.4590   18.9510  -10.8750 C   0  0  1  0  0  0  0  0  0  0  0  0
  -26.3120   13.1500  -12.4420 B   0  0  2  0  0  0  0  0  0  0  0  0
  -20.9990   19.4340  -12.3820 H   0  0  0  0  0  0  0  0  0  0  0  0
  -20.2720   17.6740  -14.0120 H   0  0  0  0  0  0  0  0  0  0  0  0
  -23.1630   19.5400  -11.4630 H   0  0  0  0  0  0  0  0  0  0  0  0
  -22.6360   20.5890   -9.6110 H   0  0  0  0  0  0  0  0  0  0  0  0
  -22.2920   19.1910   -8.8050 H   0  0  0  0  0  0  0  0  0  0  0  0
  -20.4930   21.0490  -10.1350 H   0  0  0  0  0  0  0  0  0  0  0  0
  -20.2340   20.0240   -8.6890 H   0  0  0  0  0  0  0  0  0  0  0  0
  -19.8200   18.1060   -9.9120 H   0  0  0  0  0  0  0  0  0  0  0  0
  -19.1040   19.3020  -10.9970 H   0  0  0  0  0  0  0  0  0  0  0  0
  -21.4900   16.5810  -14.2180 H   0  0  0  0  0  0  0  0  0  0  0  0
  -21.8420   18.1810  -14.0730 H   0  0  0  0  0  0  0  0  0  0  0  0
  -23.4360   17.1700  -12.6440 H   0  0  0  0  0  0  0  0  0  0  0  0
  -22.5130   14.7400  -12.5180 H   0  0  0  0  0  0  0  0  0  0  0  0
  -22.6300   14.9350  -10.7810 H   0  0  0  0  0  0  0  0  0  0  0  0
  -25.0400   15.5540  -12.4850 H   0  0  0  0  0  0  0  0  0  0  0  0
  -24.9610   15.0600  -10.7930 H   0  0  0  0  0  0  0  0  0  0  0  0
  -24.2450   13.2200  -13.0860 H   0  0  0  0  0  0  0  0  0  0  0  0
  -24.4870   12.7830  -11.3950 H   0  0  0  0  0  0  0  0  0  0  0  0
  -25.7830   11.3360  -13.0460 H   0  0  0  0  0  0  0  0  0  0  0  0
  -26.8940   13.0510  -10.5810 H   0  0  0  0  0  0  0  0  0  0  0  0
  -27.1510   14.6950  -13.3300 H   0  0  0  0  0  0  0  0  0  0  0  0
  -22.5730   17.0610   -9.7280 H   0  0  0  0  0  0  0  0  0  0  0  0
  -24.0960   17.6420  -10.4110 H   0  0  0  0  0  0  0  0  0  0  0  0
  1 21  1  1
  1 29  1  0
  1 30  1  0
  1  9  1  0
  2 25  1  6
  2 26  1  0
  2  4  1  0
  2  5  1  0
  3 11  2  0
  4 27  1  1
  4 28  1  0
  4  7  1  0
  5 23  1  1
  5 24  1  0
  5 18  1  0
  6 11  1  0
  7 20  1  6
  7  9  1  0
  7 18  1  0
  8 38  1  0
 19  8  1  6
  9 13  1  0
  9 11  1  1
 10 39  1  0
 10 19  1  0
 12 40  1  0
 12 19  1  0
 13 14  1  0
 13 17  1  0
 13 31  1  6
 14 15  1  0
 14 32  1  6
 14 33  1  0
 15 16  1  0
 15 34  1  6
 15 35  1  0
 16 19  1  0
 16 36  1  6
 16 37  1  0
 17 18  1  0
 17 41  1  1
 17 42  1  0
 18 22  1  6
M  CHG  4   1   1   5   1   6  -1  19  -1
M  END
