4HWW_X7A_ligand
     RDKit          3D

 50 50  0  0  0  0  0  0  0  0999 V2000
  -20.0440   15.8690  -10.6760 O   0  0  0  0  0  0  0  0  0  0  0  0
  -20.2030   16.3150  -11.8230 C   0  0  0  0  0  0  0  0  0  0  0  0
  -19.4560   15.9930  -12.7770 O   0  0  0  0  0  0  0  0  0  0  0  0
  -21.3330   17.2940  -12.0650 C   0  0  1  0  0  0  0  0  0  0  0  0
  -21.3320   17.6300  -13.4940 N   0  0  1  0  0  0  0  0  0  0  0  0
  -22.6960   16.7310  -11.6390 C   0  0  2  0  0  0  0  0  0  0  0  0
  -23.0060   15.3240  -12.1350 C   0  0  1  0  0  0  0  0  0  0  0  0
  -24.4680   14.9470  -11.8770 C   0  0  2  0  0  0  0  0  0  0  0  0
  -24.6640   13.4620  -12.1470 C   0  0  2  0  0  0  0  0  0  0  0  0
  -26.1160   13.0380  -12.6210 B   0  0  2  0  0  0  0  0  0  0  0  0
  -27.0080   13.4600  -11.4400 O   0  0  0  0  0  0  0  0  0  0  0  0
  -26.3900   11.5660  -12.6800 O   0  0  0  0  0  0  0  0  0  0  0  0
  -26.7720   13.7640  -13.7500 O   0  0  0  0  0  0  0  0  0  0  0  0
  -21.1140   18.5520  -11.2360 C   0  0  1  0  0  0  0  0  0  0  0  0
  -19.7270   19.1550  -11.4270 C   0  0  1  0  0  0  0  0  0  0  0  0
  -19.6110   20.4740  -10.7720 N   0  0  2  0  0  0  0  0  0  0  0  0
  -18.3220   21.1140  -11.0580 C   0  0  1  0  0  0  0  0  0  0  0  0
  -18.3600   22.5320  -10.4930 C   0  0  2  0  0  0  0  0  0  0  0  0
  -19.6770   22.8200   -9.7800 C   0  0  1  0  0  0  0  0  0  0  0  0
  -20.0650   21.7370   -8.7710 C   0  0  2  0  0  0  0  0  0  0  0  0
  -19.7800   20.3450   -9.3200 C   0  0  2  0  0  0  0  0  0  0  0  0
  -23.4690   17.3990  -12.0190 H   0  0  0  0  0  0  0  0  0  0  0  0
  -22.7440   16.7320  -10.5500 H   0  0  0  0  0  0  0  0  0  0  0  0
  -22.8110   15.2750  -13.2060 H   0  0  0  0  0  0  0  0  0  0  0  0
  -22.3580   14.6140  -11.6210 H   0  0  0  0  0  0  0  0  0  0  0  0
  -25.1140   15.5250  -12.5380 H   0  0  0  0  0  0  0  0  0  0  0  0
  -24.7230   15.1640  -10.8390 H   0  0  0  0  0  0  0  0  0  0  0  0
  -24.4390   12.9210  -11.2280 H   0  0  0  0  0  0  0  0  0  0  0  0
  -23.9490   13.1540  -12.9110 H   0  0  0  0  0  0  0  0  0  0  0  0
  -21.8580   19.2940  -11.5270 H   0  0  0  0  0  0  0  0  0  0  0  0
  -21.2510   18.3090  -10.1830 H   0  0  0  0  0  0  0  0  0  0  0  0
  -18.9860   18.4810  -10.9980 H   0  0  0  0  0  0  0  0  0  0  0  0
  -19.5310   19.2680  -12.4940 H   0  0  0  0  0  0  0  0  0  0  0  0
  -20.3460   21.0700  -11.1250 H   0  0  0  0  0  0  0  0  0  0  0  0
  -17.5170   20.5500  -10.5870 H   0  0  0  0  0  0  0  0  0  0  0  0
  -18.1630   21.1520  -12.1360 H   0  0  0  0  0  0  0  0  0  0  0  0
  -18.2390   23.2410  -11.3120 H   0  0  0  0  0  0  0  0  0  0  0  0
  -17.5380   22.6570   -9.7890 H   0  0  0  0  0  0  0  0  0  0  0  0
  -19.5840   23.7680   -9.2510 H   0  0  0  0  0  0  0  0  0  0  0  0
  -20.4690   22.9080  -10.5240 H   0  0  0  0  0  0  0  0  0  0  0  0
  -21.1300   21.8210   -8.5520 H   0  0  0  0  0  0  0  0  0  0  0  0
  -19.4970   21.8830   -7.8530 H   0  0  0  0  0  0  0  0  0  0  0  0
  -18.8700   19.9470   -8.8720 H   0  0  0  0  0  0  0  0  0  0  0  0
  -20.6190   19.6840   -9.1030 H   0  0  0  0  0  0  0  0  0  0  0  0
  -22.0700   18.2920  -13.6840 H   0  0  0  0  0  0  0  0  0  0  0  0
  -20.4420   18.0370  -13.7430 H   0  0  0  0  0  0  0  0  0  0  0  0
  -21.4830   16.7920  -14.0370 H   0  0  0  0  0  0  0  0  0  0  0  0
  -25.5630   11.0910  -12.7850 H   0  0  0  0  0  0  0  0  0  0  0  0
  -27.3600   12.6780  -11.0090 H   0  0  0  0  0  0  0  0  0  0  0  0
  -26.1700   14.4270  -14.0960 H   0  0  0  0  0  0  0  0  0  0  0  0
 10  9  1  0
 10 11  1  1
 10 12  1  0
 10 13  1  0
  4 14  1  0
  4  2  1  6
  4  5  1  0
  4  6  1  0
 14 15  1  0
 14 30  1  6
 14 31  1  0
 15 16  1  0
 15 32  1  1
 15 33  1  0
 17 16  1  0
 17 18  1  0
 17 35  1  1
 17 36  1  0
 18 19  1  0
 18 37  1  6
 18 38  1  0
 19 20  1  0
 19 39  1  1
 19 40  1  0
 20 21  1  0
 20 41  1  1
 20 42  1  0
 21 16  1  0
 21 43  1  1
 21 44  1  0
  2  1  1  0
  2  3  2  0
  6 22  1  6
  6 23  1  0
  6  7  1  0
  7  8  1  0
  7 24  1  6
  7 25  1  0
  8  9  1  0
  8 26  1  6
  8 27  1  0
  9 28  1  1
  9 29  1  0
 16 34  1  6
 50 13  1  0
  5 45  1  1
 46  5  1  0
 47  5  1  0
 49 11  1  0
 48 12  1  0
M  CHG  4   1  -1   5   1  10  -1  16   1
M  END
