5xr8_ligand
     RDKit          3D

 71 73  0  0  0  0  0  0  0  0999 V2000
   42.7190   31.5210  318.5460 C   0  0  0  0  0  0  0  0  0  0  0  0
   41.5110   30.8410  318.2700 C   0  0  0  0  0  0  0  0  0  0  0  0
   41.0420   29.9100  319.2160 C   0  0  0  0  0  0  0  0  0  0  0  0
   41.7450   29.6590  320.4090 C   0  0  0  0  0  0  0  0  0  0  0  0
   42.9600   30.3450  320.6850 C   0  0  0  0  0  0  0  0  0  0  0  0
   39.0700   38.4220  319.0820 N   0  0  2  0  0  0  0  0  0  0  0  0
   42.9310   30.2020  323.2640 C   0  0  1  0  0  0  0  0  0  0  0  0
   43.7510   29.9590  324.5470 C   0  0  1  0  0  0  0  0  0  0  0  0
   44.9750   30.8960  324.6100 C   0  0  2  0  0  0  0  0  0  0  0  0
   45.7990   30.8370  323.3120 C   0  0  1  0  0  0  0  0  0  0  0  0
   42.8330   30.1020  325.7750 C   0  0  2  0  0  0  0  0  0  0  0  0
   46.2180   30.3080  320.1060 C   0  0  2  0  0  0  0  0  0  0  0  0
   46.6880   32.6310  320.9280 C   0  0  1  0  0  0  0  0  0  0  0  0
   40.6990   31.0710  316.9840 C   0  0  2  0  0  0  0  0  0  0  0  0
   39.6550   32.2040  317.1980 C   0  0  1  0  0  0  0  0  0  0  0  0
   39.9560   29.7980  316.5250 C   0  0  1  0  0  0  0  0  0  0  0  0
   41.6540   31.4640  315.8340 C   0  0  2  0  0  0  0  0  0  0  0  0
   40.2310   33.6030  317.5080 C   0  0  1  0  0  0  0  0  0  0  0  0
   39.3200   34.7460  317.0420 C   0  0  1  0  0  0  0  0  0  0  0  0
   38.1010   34.9370  317.9570 C   0  0  1  0  0  0  0  0  0  0  0  0
   37.8810   36.4090  318.3370 C   0  0  2  0  0  0  0  0  0  0  0  0
   39.0210   36.9880  319.1910 C   0  0  1  0  0  0  0  0  0  0  0  0
   43.4350   31.2860  319.7330 C   0  0  0  0  0  0  0  0  0  0  0  0
   43.7720   30.1330  321.9660 C   0  0  2  0  0  0  0  0  0  0  0  0
   44.8860   31.1970  322.1210 C   0  0  2  0  0  0  0  0  0  0  0  0
   45.6000   31.5450  320.7890 C   0  0  2  0  0  0  0  0  0  0  0  0
   44.5970   32.0110  319.8880 O   0  0  0  0  0  0  0  0  0  0  0  0
   41.4860   29.9490  325.3800 O   0  0  0  0  0  0  0  0  0  0  0  0
   41.2000   28.7350  321.2530 O   0  0  0  0  0  0  0  0  0  0  0  0
   43.1000   32.2350  317.8300 H   0  0  0  0  0  0  0  0  0  0  0  0
   40.1240   29.3760  319.0220 H   0  0  0  0  0  0  0  0  0  0  0  0
   42.1480   29.4450  323.2080 H   0  0  0  0  0  0  0  0  0  0  0  0
   42.4640   31.1850  323.3270 H   0  0  0  0  0  0  0  0  0  0  0  0
   44.1170   28.9320  324.5210 H   0  0  0  0  0  0  0  0  0  0  0  0
   45.6080   30.5950  325.4450 H   0  0  0  0  0  0  0  0  0  0  0  0
   44.6340   31.9190  324.7700 H   0  0  0  0  0  0  0  0  0  0  0  0
   46.6220   31.5480  323.3700 H   0  0  0  0  0  0  0  0  0  0  0  0
   46.1950   29.8300  323.1770 H   0  0  0  0  0  0  0  0  0  0  0  0
   42.9710   31.0880  326.2180 H   0  0  0  0  0  0  0  0  0  0  0  0
   43.0860   29.3360  326.5080 H   0  0  0  0  0  0  0  0  0  0  0  0
   39.0570   32.2830  316.2900 H   0  0  0  0  0  0  0  0  0  0  0  0
   38.9980   31.9140  318.0180 H   0  0  0  0  0  0  0  0  0  0  0  0
   40.3710   33.6900  318.5860 H   0  0  0  0  0  0  0  0  0  0  0  0
   41.1990   33.7020  317.0180 H   0  0  0  0  0  0  0  0  0  0  0  0
   39.8960   35.6710  317.0310 H   0  0  0  0  0  0  0  0  0  0  0  0
   38.9730   34.5330  316.0300 H   0  0  0  0  0  0  0  0  0  0  0  0
   37.2140   34.5720  317.4390 H   0  0  0  0  0  0  0  0  0  0  0  0
   38.2460   34.3530  318.8660 H   0  0  0  0  0  0  0  0  0  0  0  0
   36.9520   36.4870  318.9020 H   0  0  0  0  0  0  0  0  0  0  0  0
   37.7890   36.9990  317.4250 H   0  0  0  0  0  0  0  0  0  0  0  0
   39.9690   36.5730  318.8480 H   0  0  0  0  0  0  0  0  0  0  0  0
   38.8650   36.7120  320.2340 H   0  0  0  0  0  0  0  0  0  0  0  0
   44.2420   29.1510  321.9140 H   0  0  0  0  0  0  0  0  0  0  0  0
   44.3720   32.1110  322.4190 H   0  0  0  0  0  0  0  0  0  0  0  0
   40.9080   30.2290  326.0940 H   0  0  0  0  0  0  0  0  0  0  0  0
   41.0740   27.9070  320.7840 H   0  0  0  0  0  0  0  0  0  0  0  0
   39.8250   38.7770  319.6510 H   0  0  0  0  0  0  0  0  0  0  0  0
   38.1950   38.8130  319.4020 H   0  0  0  0  0  0  0  0  0  0  0  0
   39.2220   38.6810  318.1180 H   0  0  0  0  0  0  0  0  0  0  0  0
   45.4590   29.5320  320.0020 H   0  0  0  0  0  0  0  0  0  0  0  0
   47.0420   29.9310  320.7120 H   0  0  0  0  0  0  0  0  0  0  0  0
   46.5910   30.5860  319.1200 H   0  0  0  0  0  0  0  0  0  0  0  0
   46.2640   33.5120  321.4100 H   0  0  0  0  0  0  0  0  0  0  0  0
   47.5100   32.2470  321.5320 H   0  0  0  0  0  0  0  0  0  0  0  0
   47.0590   32.9020  319.9390 H   0  0  0  0  0  0  0  0  0  0  0  0
   39.2660   29.4780  317.3060 H   0  0  0  0  0  0  0  0  0  0  0  0
   39.3990   30.0110  315.6130 H   0  0  0  0  0  0  0  0  0  0  0  0
   40.6790   29.0050  316.3330 H   0  0  0  0  0  0  0  0  0  0  0  0
   42.2050   32.3630  316.1100 H   0  0  0  0  0  0  0  0  0  0  0  0
   41.0750   31.6560  314.9310 H   0  0  0  0  0  0  0  0  0  0  0  0
   42.3550   30.6500  315.6500 H   0  0  0  0  0  0  0  0  0  0  0  0
  1  2  2  0
  1 23  1  0
  1 30  1  0
  7  8  1  0
  7 24  1  0
  7 33  1  1
  7 32  1  0
  8  9  1  0
  8 11  1  0
  8 34  1  6
  9 10  1  0
  9 35  1  1
  9 36  1  0
 10 25  1  0
 10 37  1  1
 10 38  1  0
 11 28  1  0
 11 40  1  1
 11 39  1  0
 12 26  1  0
 12 62  1  6
 12 60  1  0
 12 61  1  0
 13 26  1  0
 13 63  1  1
 13 64  1  0
 13 65  1  0
 14  2  1  1
 14 15  1  0
 14 16  1  0
 14 17  1  0
 15 18  1  0
 15 41  1  6
 15 42  1  0
 16 66  1  1
 16 67  1  0
 16 68  1  0
  2  3  1  0
 17 69  1  1
 17 70  1  0
 17 71  1  0
 18 19  1  0
 18 43  1  1
 18 44  1  0
 19 20  1  0
 19 45  1  6
 19 46  1  0
 20 21  1  0
 20 48  1  1
 20 47  1  0
 21 22  1  0
 21 49  1  1
 21 50  1  0
 22  6  1  0
 22 51  1  6
 22 52  1  0
  3  4  2  0
  3 31  1  0
  4  5  1  0
  4 29  1  0
  5 23  2  0
  5 24  1  0
 23 27  1  0
 24 25  1  0
 24 53  1  6
 25 26  1  0
 25 54  1  1
 26 27  1  6
 55 28  1  0
  6 57  1  1
 58  6  1  0
 59  6  1  0
 56 29  1  0
M  CHG  1   6   1
M  END
