6v7f
     RDKit          3D

 45 46  0  0  0  0  0  0  0  0999 V2000
  -20.0860   15.5530  -10.7670 O   0  0  0  0  0  0  0  0  0  0  0  0
  -20.1240   16.0040  -11.9190 C   0  0  0  0  0  0  0  0  0  0  0  0
  -19.2920   15.6600  -12.8810 O   0  0  0  0  0  1  0  0  0  0  0  0
  -21.1570   17.0630  -12.3730 C   0  0  2  0  0  0  0  0  0  0  0  0
  -20.9630   17.3300  -13.8350 N   0  0  0  0  0  4  0  0  0  0  0  0
  -20.8690   18.3480  -11.5680 C   0  0  0  0  0  0  0  0  0  0  0  0
  -22.0970   18.6410  -10.6560 C   0  0  2  0  0  0  0  0  0  0  0  0
  -22.8290   19.9360  -11.0560 C   0  0  0  0  0  0  0  0  0  0  0  0
  -21.9740   20.9950  -10.3850 N   0  0  0  0  0  4  0  0  0  0  0  0
  -21.5650   20.4540   -9.0530 C   0  0  0  0  0  0  0  0  0  0  0  0
  -21.6690   18.9610   -9.2090 C   0  0  0  0  0  0  0  0  0  0  0  0
  -22.9130   17.3330  -10.7060 C   0  0  0  0  0  0  0  0  0  0  0  0
  -22.6550   16.6890  -12.0700 C   0  0  2  0  0  0  0  0  0  0  0  0
  -22.9880   15.1920  -12.1020 C   0  0  0  0  0  0  0  0  0  0  0  0
  -24.4610   14.8550  -12.2520 C   0  0  0  0  0  0  0  0  0  0  0  0
  -24.7560   13.3640  -12.1090 C   0  0  0  0  0  0  0  0  0  0  0  0
  -26.2910   13.1190  -12.2890 B   0  0  0  0  0  4  0  0  0  0  0  0
  -26.7820   13.6540  -13.5760 O   0  0  0  0  0  0  0  0  0  0  0  0
  -26.6510   11.6700  -12.2860 O   0  0  0  0  0  0  0  0  0  0  0  0
  -27.1090   13.7270  -11.2300 O   0  0  0  0  0  0  0  0  0  0  0  0
  -19.9800   18.2070  -10.9540 H   0  0  0  0  0  0  0  0  0  0  0  0
  -20.7140   19.1820  -12.2530 H   0  0  0  0  0  0  0  0  0  0  0  0
  -22.8450   20.0650  -12.1380 H   0  0  0  0  0  0  0  0  0  0  0  0
  -23.8420   19.9460  -10.6520 H   0  0  0  0  0  0  0  0  0  0  0  0
  -21.1560   21.1860  -10.9470 H   0  0  0  0  0  0  0  0  0  0  0  0
  -22.5110   21.8410  -10.2620 H   0  0  0  0  0  0  0  0  0  0  0  0
  -20.5430   20.7470   -8.8150 H   0  0  0  0  0  0  0  0  0  0  0  0
  -22.2480   20.8020   -8.2780 H   0  0  0  0  0  0  0  0  0  0  0  0
  -20.7020   18.5040   -9.0030 H   0  0  0  0  0  0  0  0  0  0  0  0
  -22.4130   18.5720   -8.5130 H   0  0  0  0  0  0  0  0  0  0  0  0
  -22.5910   16.6610   -9.9100 H   0  0  0  0  0  0  0  0  0  0  0  0
  -23.9750   17.5550  -10.5960 H   0  0  0  0  0  0  0  0  0  0  0  0
  -23.2830   17.1910  -12.8050 H   0  0  0  0  0  0  0  0  0  0  0  0
  -22.4540   14.7470  -12.9420 H   0  0  0  0  0  0  0  0  0  0  0  0
  -22.6220   14.7370  -11.1810 H   0  0  0  0  0  0  0  0  0  0  0  0
  -24.7920   15.1810  -13.2380 H   0  0  0  0  0  0  0  0  0  0  0  0
  -25.0250   15.4000  -11.4950 H   0  0  0  0  0  0  0  0  0  0  0  0
  -24.2080   12.8100  -12.8710 H   0  0  0  0  0  0  0  0  0  0  0  0
  -24.4460   13.0250  -11.1210 H   0  0  0  0  0  0  0  0  0  0  0  0
  -21.7330   17.8840  -14.1820 H   0  0  0  0  0  0  0  0  0  0  0  0
  -20.9270   16.4530  -14.3360 H   0  0  0  0  0  0  0  0  0  0  0  0
  -20.0970   17.8330  -13.9740 H   0  0  0  0  0  0  0  0  0  0  0  0
  -27.2150   11.4820  -11.5330 H   0  0  0  0  0  0  0  0  0  0  0  0
  -26.5960   14.3990  -10.7750 H   0  0  0  0  0  0  0  0  0  0  0  0
  -26.0420   13.9930  -14.0850 H   0  0  0  0  0  0  0  0  0  0  0  0
 17 16  1  0
 17 18  1  0
 17 19  1  0
 17 20  1  0
 16 15  1  0
 16 38  1  0
 16 39  1  0
 15 14  1  0
 15 36  1  0
 15 37  1  0
 10  9  1  0
 10 11  1  0
 10 27  1  0
 10 28  1  0
  7  8  1  6
  8  9  1  0
  8 23  1  0
  8 24  1  0
 14 13  1  0
 14 34  1  0
 14 35  1  0
 13  4  1  0
 13 12  1  0
 13 33  1  6
 12  7  1  0
 12 31  1  0
 12 32  1  0
  7  6  1  0
  7 11  1  0
  6  4  1  0
  6 21  1  0
  6 22  1  0
  4  2  1  0
  4  5  1  6
  2  1  2  0
  2  3  1  0
 11 29  1  0
 11 30  1  0
  5 40  1  0
  9 25  1  0
 26  9  1  0
 41  5  1  0
 42  5  1  0
 43 19  1  0
 44 20  1  0
 45 18  1  0
M  CHG  4   3  -1   5   1   9   1  17  -1
M  END
