7eun
     RDKit          3D

 28 27  0  0  0  0  0  0  0  0999 V2000
   63.8670  -24.3600   83.3610 N   0  0  0  0  0  4  0  0  0  0  0  0
   64.8670  -24.1230   82.2740 C   0  0  2  0  0  0  0  0  0  0  0  0
   65.9820  -23.2220   82.7250 C   0  0  0  0  0  0  0  0  0  0  0  0
   66.9350  -23.0060   81.9420 O   0  0  0  0  0  0  0  0  0  0  0  0
   65.9760  -22.8200   83.9100 O   0  0  0  0  0  1  0  0  0  0  0  0
   64.1780  -23.6170   81.0070 C   0  0  0  0  0  0  0  0  0  0  0  0
   63.8530  -22.1210   81.0270 C   0  0  0  0  0  0  0  0  0  0  0  0
   62.9930  -21.6800   79.8350 C   0  0  0  0  0  0  0  0  0  0  0  0
   62.8520  -20.1680   79.7470 C   0  0  0  0  0  0  0  0  0  0  0  0
   61.5460  -19.6380   79.0220 B   0  0  0  0  0  4  0  0  0  0  0  0
   61.3410  -18.1630   78.9960 O   0  0  0  0  0  0  0  0  0  0  0  0
   60.2630  -20.2150   79.4530 O   0  0  0  0  0  0  0  0  0  0  0  0
   61.6150  -20.0820   77.5360 O   0  0  0  0  0  0  0  0  0  0  0  0
   63.9650  -25.3250   83.7150 H   0  0  0  0  0  0  0  0  0  0  0  0
   64.0310  -23.6920   84.1320 H   0  0  0  0  0  0  0  0  0  0  0  0
   65.3280  -25.0810   81.9970 H   0  0  0  0  0  0  0  0  0  0  0  0
   63.2500  -24.1750   80.8670 H   0  0  0  0  0  0  0  0  0  0  0  0
   64.8250  -23.8230   80.1520 H   0  0  0  0  0  0  0  0  0  0  0  0
   63.3240  -21.8850   81.9520 H   0  0  0  0  0  0  0  0  0  0  0  0
   64.7870  -21.5550   81.0200 H   0  0  0  0  0  0  0  0  0  0  0  0
   63.4450  -22.0510   78.9120 H   0  0  0  0  0  0  0  0  0  0  0  0
   62.0010  -22.1270   79.9260 H   0  0  0  0  0  0  0  0  0  0  0  0
   63.7210  -19.7740   79.2160 H   0  0  0  0  0  0  0  0  0  0  0  0
   62.8670  -19.7640   80.7620 H   0  0  0  0  0  0  0  0  0  0  0  0
   61.8860  -17.6090   78.4200 H   0  0  0  0  0  0  0  0  0  0  0  0
   60.0160  -20.1990   80.3880 H   0  0  0  0  0  0  0  0  0  0  0  0
   62.4560  -20.0470   77.0600 H   0  0  0  0  0  0  0  0  0  0  0  0
   62.9350  -24.2290   82.9950 H   0  0  0  0  0  0  0  0  0  0  0  0
 10  9  1  0
 10 11  1  0
 10 12  1  0
 10 13  1  0
  3  2  1  0
  3  4  2  0
  3  5  1  0
  2  1  1  0
  2  6  1  0
  2 16  1  6
  6  7  1  0
  6 17  1  0
  6 18  1  0
  8  7  1  0
  8  9  1  0
  8 21  1  0
  8 22  1  0
  9 23  1  0
  9 24  1  0
  7 19  1  0
  7 20  1  0
  1 28  1  0
 14  1  1  0
 15  1  1  0
 26 12  1  0
 25 11  1  0
 27 13  1  0
M  CHG  3   1   1   5  -1  10  -1
M  END
