2AEB_ABH_ligand
     RDKit          3D

 28 27  0  0  0  0  0  0  0  0999 V2000
  -21.1250   17.4170  -13.7350 N   0  0  2  0  0  0  0  0  0  0  0  0
  -21.2240   17.2610  -12.2580 C   0  0  2  0  0  0  0  0  0  0  0  0
  -20.1560   16.2080  -11.8340 C   0  0  0  0  0  0  0  0  0  0  0  0
  -19.9440   15.8840  -10.7050 O   0  0  0  0  0  0  0  0  0  0  0  0
  -19.4280   15.6850  -12.8200 O   0  0  0  0  0  0  0  0  0  0  0  0
  -22.6190   16.7510  -11.8470 C   0  0  1  0  0  0  0  0  0  0  0  0
  -23.0630   15.3460  -12.1010 C   0  0  2  0  0  0  0  0  0  0  0  0
  -24.4680   14.9530  -11.6920 C   0  0  2  0  0  0  0  0  0  0  0  0
  -24.7510   13.5100  -12.0930 C   0  0  2  0  0  0  0  0  0  0  0  0
  -26.2100   13.0400  -12.3910 B   0  0  2  0  0  0  0  0  0  0  0  0
  -26.3450   11.6070  -12.6250 O   0  0  0  0  0  0  0  0  0  0  0  0
  -26.7600   13.6260  -13.5890 O   0  0  0  0  0  0  0  0  0  0  0  0
  -27.1850   13.3600  -11.3370 O   0  0  0  0  0  0  0  0  0  0  0  0
  -21.7350   18.0020  -14.0130 H   0  0  0  0  0  0  0  0  0  0  0  0
  -21.2670   16.6300  -14.1260 H   0  0  0  0  0  0  0  0  0  0  0  0
  -21.0390   18.1180  -11.8190 H   0  0  0  0  0  0  0  0  0  0  0  0
  -22.7020   16.9020  -10.8930 H   0  0  0  0  0  0  0  0  0  0  0  0
  -23.2670   17.3310  -12.2770 H   0  0  0  0  0  0  0  0  0  0  0  0
  -22.4450   14.7540  -11.6450 H   0  0  0  0  0  0  0  0  0  0  0  0
  -22.9730   15.1750  -13.0510 H   0  0  0  0  0  0  0  0  0  0  0  0
  -25.1080   15.5420  -12.1220 H   0  0  0  0  0  0  0  0  0  0  0  0
  -24.5660   15.0480  -10.7320 H   0  0  0  0  0  0  0  0  0  0  0  0
  -24.4060   12.9430  -11.3860 H   0  0  0  0  0  0  0  0  0  0  0  0
  -24.2230   13.3240  -12.8860 H   0  0  0  0  0  0  0  0  0  0  0  0
  -25.6370   11.2750  -12.7690 H   0  0  0  0  0  0  0  0  0  0  0  0
  -26.2130   13.6650  -14.1850 H   0  0  0  0  0  0  0  0  0  0  0  0
  -26.8090   13.4130  -10.5680 H   0  0  0  0  0  0  0  0  0  0  0  0
  -20.3130   17.7120  -13.9490 H   0  0  0  0  0  0  0  0  0  0  0  0
 10  9  1  0
 10 11  1  6
 10 12  1  0
 10 13  1  0
  3  2  1  0
  3  4  2  0
  3  5  1  0
  2 16  1  1
  2  1  1  0
  2  6  1  0
  6 17  1  1
  6 18  1  0
  6  7  1  0
  8  9  1  0
  8 21  1  6
  8 22  1  0
  8  7  1  0
  9 23  1  1
  9 24  1  0
  7 19  1  1
  7 20  1  0
  1 28  1  1
 14  1  1  0
 15  1  1  0
 26 12  1  0
 25 11  1  0
 27 13  1  0
M  CHG  2   1   1  10  -1
M  END
