6rw1_KL5_ligand
     RDKit          3D

 38 40  0  0  0  0  0  0  0  0999 V2000
    0.2070    9.1610   13.5880 C   0  0  0  0  0  0  0  0  0  0  0  0
   -0.2520    9.3640   14.8760 C   0  0  0  0  0  0  0  0  0  0  0  0
   -1.2900    8.5910   15.3620 C   0  0  0  0  0  0  0  0  0  0  0  0
   -0.3740    8.1870   12.7860 C   0  0  0  0  0  0  0  0  0  0  0  0
   -5.0310    1.8330   15.3070 C   0  0  0  0  0  0  0  0  0  0  0  0
   -4.3710    2.7710   14.4960 C   0  0  0  0  0  0  0  0  0  0  0  0
   -4.8110    4.0890   14.3800 C   0  0  0  0  0  0  0  0  0  0  0  0
   -5.9430    4.4950   15.0850 C   0  0  0  0  0  0  0  0  0  0  0  0
   -6.6130    3.5840   15.8950 C   0  0  0  0  0  0  0  0  0  0  0  0
   -6.1620    2.2730   16.0040 C   0  0  0  0  0  0  0  0  0  0  0  0
   -6.7090    1.1330   16.8100 C   0  0  1  0  0  0  0  0  0  0  0  0
   -4.4820    5.9130   12.6730 C   0  0  0  0  0  0  0  0  0  0  0  0
   -2.0510    6.3450   12.3880 C   0  0  2  0  0  0  0  0  0  0  0  0
   -1.4200    7.4040   13.2610 C   0  0  0  0  0  0  0  0  0  0  0  0
   -1.8700    7.6190   14.5590 C   0  0  0  0  0  0  0  0  0  0  0  0
   -3.5660    0.0990   16.5220 O   0  0  0  0  0  0  0  0  0  0  0  0
   -6.0830    6.2230   12.2790 S   0  0  0  0  0  0  0  0  0  0  0  0
   -4.0790    4.9970   13.5750 N   0  0  0  0  0  0  0  0  0  0  0  0
   -3.4670    6.5780   12.1150 N   0  0  0  0  0  0  0  0  0  0  0  0
   -4.7440    0.2840   15.6580 B   0  0  1  0  0  0  0  0  0  0  0  0
   -5.9790   -0.0210   16.4140 O   0  0  0  0  0  0  0  0  0  0  0  0
   -4.6730   -0.6340   14.5220 O   0  0  0  0  0  0  0  0  0  0  0  0
    1.0190    9.7620   13.2040 H   0  0  0  0  0  0  0  0  0  0  0  0
    0.1980   10.1220   15.5000 H   0  0  0  0  0  0  0  0  0  0  0  0
   -1.6500    8.7450   16.3680 H   0  0  0  0  0  0  0  0  0  0  0  0
   -0.0070    8.0350   11.7810 H   0  0  0  0  0  0  0  0  0  0  0  0
   -3.4950    2.4620   13.9460 H   0  0  0  0  0  0  0  0  0  0  0  0
   -6.2970    5.5120   15.0040 H   0  0  0  0  0  0  0  0  0  0  0  0
   -7.4900    3.8970   16.4420 H   0  0  0  0  0  0  0  0  0  0  0  0
   -6.5680    1.3220   17.8740 H   0  0  0  0  0  0  0  0  0  0  0  0
   -7.7680    0.9970   16.5930 H   0  0  0  0  0  0  0  0  0  0  0  0
   -1.9510    5.3820   12.8870 H   0  0  0  0  0  0  0  0  0  0  0  0
   -1.5140    6.3070   11.4400 H   0  0  0  0  0  0  0  0  0  0  0  0
   -2.6820    7.0210   14.9480 H   0  0  0  0  0  0  0  0  0  0  0  0
   -3.0790    4.9490   13.6990 H   0  0  0  0  0  0  0  0  0  0  0  0
   -3.6980    7.3010   11.4500 H   0  0  0  0  0  0  0  0  0  0  0  0
   -3.7800   -0.5140   17.2290 H   0  0  0  0  0  0  0  0  0  0  0  0
   -4.6550   -0.1320   13.7040 H   0  0  0  0  0  0  0  0  0  0  0  0
 20  5  1  0
 20 16  1  1
 20 21  1  0
 20 22  1  0
  5  6  2  0
  5 10  1  0
 14  4  2  0
 14 13  1  0
 14 15  1  0
 15  3  2  0
 15 34  1  0
  3  2  1  0
  3 25  1  0
  2  1  2  0
  2 24  1  0
  1  4  1  0
  1 23  1  0
  4 26  1  0
  6  7  1  0
  6 27  1  0
  7  8  2  0
  7 18  1  0
  8  9  1  0
  8 28  1  0
  9 10  2  0
  9 29  1  0
 10 11  1  0
 11 21  1  0
 11 30  1  1
 11 31  1  0
 12 17  2  0
 12 18  1  0
 12 19  1  0
 13 19  1  0
 13 32  1  1
 13 33  1  0
 35 18  1  0
 36 19  1  0
 37 16  1  0
 38 22  1  0
M  CHG  1  20  -1
M  END
