8C2Z_ligand
     RDKit          3D

 60 64  0  0  0  0  0  0  0  0999 V2000
  -23.6700  -30.3640   -1.1150 C   0  0  1  0  0  0  0  0  0  0  0  0
  -25.7090  -31.7140   -1.3790 C   0  0  1  0  0  0  0  0  0  0  0  0
  -24.4710  -29.6130    1.5550 C   0  0  1  0  0  0  0  0  0  0  0  0
  -22.3460  -28.5070    1.8100 C   0  0  0  0  0  0  0  0  0  0  0  0
  -22.1880  -28.7310    3.1800 C   0  0  0  0  0  0  0  0  0  0  0  0
  -21.3900  -27.8910    3.9290 C   0  0  0  0  0  0  0  0  0  0  0  0
  -20.8770  -26.5790    1.9660 C   0  0  0  0  0  0  0  0  0  0  0  0
  -17.1780  -23.8590    4.6440 C   0  0  0  0  0  0  0  0  0  0  0  0
  -16.5270  -23.9680    3.4200 C   0  0  0  0  0  0  0  0  0  0  0  0
  -17.1210  -24.7880    2.4740 C   0  0  0  0  0  0  0  0  0  0  0  0
  -21.1460  -28.0500    5.2660 O   0  0  0  0  0  0  0  0  0  0  0  0
  -17.1470  -25.4360   -2.5000 C   0  0  1  0  0  0  0  0  0  0  0  0
  -20.7170  -26.8280    3.3360 C   0  0  0  0  0  0  0  0  0  0  0  0
  -21.6800  -27.4210    1.2140 C   0  0  0  0  0  0  0  0  0  0  0  0
  -18.8110  -25.2740    3.9490 C   0  0  0  0  0  0  0  0  0  0  0  0
  -16.6470  -24.8630    1.0680 C   0  0  0  0  0  0  0  0  0  0  0  0
  -17.3610  -25.3040    0.0020 C   0  0  0  0  0  0  0  0  0  0  0  0
  -15.4330  -24.5810   -0.8660 C   0  0  0  0  0  0  0  0  0  0  0  0
  -15.3770  -24.3850    0.5210 C   0  0  0  0  0  0  0  0  0  0  0  0
  -14.2550  -23.7620    1.0600 C   0  0  0  0  0  0  0  0  0  0  0  0
  -13.2640  -23.3680    0.1770 C   0  0  0  0  0  0  0  0  0  0  0  0
  -14.3920  -24.1510   -1.6790 C   0  0  0  0  0  0  0  0  0  0  0  0
  -21.7000  -29.2220    5.9000 C   0  0  1  0  0  0  0  0  0  0  0  0
  -23.0530  -29.1700   -0.4000 C   0  0  1  0  0  0  0  0  0  0  0  0
  -25.0790  -30.8160    0.8270 C   0  0  1  0  0  0  0  0  0  0  0  0
  -19.8510  -26.1000    4.1580 N   0  0  0  0  0  0  0  0  0  0  0  0
  -18.3220  -24.5100    4.9370 N   0  0  0  0  0  0  0  0  0  0  0  0
  -25.0670  -30.5890   -0.6460 N   0  0  1  0  0  0  0  0  0  0  0  0
  -18.2530  -25.4610    2.7190 N   0  0  0  0  0  0  0  0  0  0  0  0
  -16.6550  -25.1450   -1.1640 N   0  0  0  0  0  0  0  0  0  0  0  0
  -13.3170  -23.5480   -1.1550 N   0  0  0  0  0  0  0  0  0  0  0  0
  -23.1160  -29.3400    1.0580 N   0  0  0  0  0  0  0  0  0  0  0  0
  -23.6790  -30.1740   -2.1880 H   0  0  0  0  0  0  0  0  0  0  0  0
  -23.0740  -31.2530   -0.9110 H   0  0  0  0  0  0  0  0  0  0  0  0
  -25.0980  -28.7370    1.3860 H   0  0  0  0  0  0  0  0  0  0  0  0
  -24.4270  -29.8230    2.6240 H   0  0  0  0  0  0  0  0  0  0  0  0
  -22.6910  -29.5610    3.6530 H   0  0  0  0  0  0  0  0  0  0  0  0
  -20.3800  -25.7400    1.5020 H   0  0  0  0  0  0  0  0  0  0  0  0
  -16.7440  -23.2200    5.3990 H   0  0  0  0  0  0  0  0  0  0  0  0
  -15.6060  -23.4410    3.2170 H   0  0  0  0  0  0  0  0  0  0  0  0
  -21.7970  -27.2410    0.1560 H   0  0  0  0  0  0  0  0  0  0  0  0
  -18.3530  -25.7250    0.0630 H   0  0  0  0  0  0  0  0  0  0  0  0
  -14.1610  -23.5930    2.1230 H   0  0  0  0  0  0  0  0  0  0  0  0
  -12.3890  -22.8840    0.5850 H   0  0  0  0  0  0  0  0  0  0  0  0
  -14.4500  -24.3050   -2.7460 H   0  0  0  0  0  0  0  0  0  0  0  0
  -22.0110  -29.0730   -0.7030 H   0  0  0  0  0  0  0  0  0  0  0  0
  -23.5940  -28.2650   -0.6790 H   0  0  0  0  0  0  0  0  0  0  0  0
  -24.4970  -31.7080    1.0580 H   0  0  0  0  0  0  0  0  0  0  0  0
  -26.1070  -30.9590    1.1620 H   0  0  0  0  0  0  0  0  0  0  0  0
  -20.0550  -26.2250    5.1400 H   0  0  0  0  0  0  0  0  0  0  0  0
  -25.5980  -29.7510   -0.8360 H   0  0  0  0  0  0  0  0  0  0  0  0
  -26.7270  -31.8520   -1.0140 H   0  0  0  0  0  0  0  0  0  0  0  0
  -25.7340  -31.4860   -2.4440 H   0  0  0  0  0  0  0  0  0  0  0  0
  -25.1370  -32.6270   -1.2160 H   0  0  0  0  0  0  0  0  0  0  0  0
  -16.3690  -25.2150   -3.2300 H   0  0  0  0  0  0  0  0  0  0  0  0
  -17.4170  -26.4900   -2.5660 H   0  0  0  0  0  0  0  0  0  0  0  0
  -18.0240  -24.8230   -2.7060 H   0  0  0  0  0  0  0  0  0  0  0  0
  -21.4050  -29.2420    6.9490 H   0  0  0  0  0  0  0  0  0  0  0  0
  -22.7880  -29.1930    5.8290 H   0  0  0  0  0  0  0  0  0  0  0  0
  -21.3270  -30.1160    5.4010 H   0  0  0  0  0  0  0  0  0  0  0  0
  2 28  1  0
  2 52  1  1
  2 53  1  0
  2 54  1  0
  6  5  2  0
  6 11  1  0
  6 13  1  0
 13  7  2  0
 13 26  1  0
  7 14  1  0
  7 38  1  0
 14  4  2  0
 14 41  1  0
 15 26  1  0
 15 27  2  0
 15 29  1  0
  8  9  2  0
  8 27  1  0
  8 39  1  0
  9 10  1  0
  9 40  1  0
 10 16  1  0
 10 29  2  0
 16 17  2  0
 16 19  1  0
 17 30  1  0
 17 42  1  0
 18 19  2  0
 18 22  1  0
 18 30  1  0
 19 20  1  0
 20 21  2  0
 20 43  1  0
 21 31  1  0
 21 44  1  0
 22 31  2  0
 22 45  1  0
  1 24  1  0
  1 28  1  0
  1 33  1  6
  1 34  1  0
 12 30  1  0
 12 55  1  6
 12 56  1  0
 12 57  1  0
 23 11  1  0
 23 58  1  1
 23 59  1  0
 23 60  1  0
 24 32  1  0
 24 46  1  6
 24 47  1  0
  3 25  1  0
  3 32  1  0
  3 35  1  1
  3 36  1  0
 25 28  1  0
 25 48  1  6
 25 49  1  0
  4  5  1  0
  4 32  1  0
  5 37  1  0
 50 26  1  0
 28 51  1  1
M  CHG  1  28   1
M  END
