REMARK  12 active torsions:
REMARK  status: ('A' for Active; 'I' for Inactive)
REMARK       I    between atoms: C_29  and  N1_1 
REMARK       I    between atoms: C22_14  and  N3_2 
REMARK       I    between atoms: C6_5  and  N_34 
REMARK    1  A    between atoms: C6_5  and  O1_36 
REMARK    2  A    between atoms: C15_10  and  C8_7 
REMARK       I    between atoms: C15_10  and  N2_16 
REMARK    3  A    between atoms: C16_17  and  C17_11 
REMARK    4  A    between atoms: C17_11  and  C18_21 
REMARK    5  A    between atoms: C16_17  and  C21_13 
REMARK    6  A    between atoms: C21_13  and  C22_14 
REMARK    7  A    between atoms: C21_13  and  O3_20 
REMARK    8  A    between atoms: C16_17  and  N2_16 
REMARK    9  A    between atoms: C18_21  and  C19_22 
REMARK   10  A    between atoms: C_29  and  C1_31 
REMARK   11  A    between atoms: C1_31  and  C2_32 
REMARK   12  A    between atoms: C1_31  and  N_34 
ROOT
HETATM    1  N1  XKQ A 501       7.672  10.441  24.157  1.00 24.09    -0.336 N 
HETATM    2  C8  XKQ A 501       7.224  11.697  23.556  1.00 23.75     0.183 C 
HETATM    3  C10 XKQ A 501       7.269  11.822  26.014  1.00 25.08     0.010 C 
HETATM    4  C13 XKQ A 501       4.976  12.575  25.635  1.00 24.77     0.001 C 
HETATM    5  C9  XKQ A 501       7.211  12.689  24.743  1.00 24.35     0.023 C 
HETATM    6  C14 XKQ A 501       5.920  13.496  24.900  1.00 24.17     0.007 C 
HETATM    7  C12 XKQ A 501       5.805  11.545  26.396  1.00 25.36     0.007 C 
HETATM    8  C11 XKQ A 501       8.037  10.584  25.575  1.00 24.82     0.132 C 
HETATM    9  C   XKQ A 501       7.731   9.333  23.391  1.00 23.62     0.244 C 
HETATM   10  O   XKQ A 501       7.352   9.340  22.229  1.00 22.86    -0.271 OA
ENDROOT
BRANCH   2  11
HETATM   11  C15 XKQ A 501       8.185  12.157  22.454  1.00 23.71     0.241 C 
HETATM   12  O5  XKQ A 501       9.405  12.000  22.562  1.00 24.16    -0.271 OA
HETATM   13  N2  XKQ A 501       7.604  12.663  21.364  1.00 22.69    -0.351 N 
HETATM   14  H26 XKQ A 501       6.605  12.587  21.201  1.00 22.69     0.163 HD
BRANCH  13  15
HETATM   15  C16 XKQ A 501       8.350  13.360  20.325  1.00 21.72     0.132 C 
BRANCH  15  16
HETATM   16  C17 XKQ A 501       8.101  12.682  18.978  1.00 20.46     0.034 C 
BRANCH  16  17
HETATM   17  C18 XKQ A 501       8.793  11.317  18.872  1.00 20.17     0.081 C 
BRANCH  17  18
HETATM   18  C19 XKQ A 501       8.358  10.505  17.683  1.00 21.78     0.240 C 
HETATM   19  C20 XKQ A 501       9.230   9.266  17.468  1.00 21.46     0.090 C 
HETATM   20  F1  XKQ A 501       7.058  10.102  17.878  1.00 21.51    -0.207 F 
HETATM   21  F   XKQ A 501       8.359  11.282  16.600  1.00 23.07    -0.207 F 
ENDBRANCH  17  18
ENDBRANCH  16  17
ENDBRANCH  15  16
BRANCH  15  22
HETATM   22  C21 XKQ A 501       7.979  14.857  20.346  1.00 22.31     0.201 C 
BRANCH  22  23
HETATM   23  C22 XKQ A 501       8.938  15.725  19.542  1.00 23.50     0.257 C 
HETATM   24  O4  XKQ A 501       8.991  15.607  18.321  1.00 22.96    -0.270 OA
HETATM   25  N3  XKQ A 501       9.702  16.569  20.231  1.00 24.24    -0.363 N 
HETATM   26  C23 XKQ A 501      10.830  17.260  19.633  1.00 24.81     0.149 C 
HETATM   27  H36 XKQ A 501       9.516  16.761  21.211  1.00 24.24     0.162 HD
ENDBRANCH  22  23
BRANCH  22  28
HETATM   28  O3  XKQ A 501       7.919  15.299  21.695  1.00 22.76    -0.375 OA
HETATM   29  H35 XKQ A 501       8.730  14.974  22.168  1.00 22.76     0.211 HD
ENDBRANCH  22  28
ENDBRANCH  15  22
ENDBRANCH  13  15
ENDBRANCH   2  11
BRANCH   9  30
HETATM   30  C1  XKQ A 501       8.318   8.044  23.983  1.00 23.89     0.186 C 
BRANCH  30  31
HETATM   31  C2  XKQ A 501       9.632   7.573  23.296  1.00 24.55    -0.022 C 
HETATM   32  C3  XKQ A 501      10.158   6.333  24.024  1.00 24.67     0.017 C 
HETATM   33  C4  XKQ A 501      10.680   8.684  23.387  1.00 25.15     0.017 C 
HETATM   34  C5  XKQ A 501       9.410   7.221  21.823  1.00 24.08     0.017 C 
ENDBRANCH  30  31
BRANCH  30  35
HETATM   35  N   XKQ A 501       7.277   7.032  23.953  1.00 24.36    -0.323 N 
HETATM   36  C6  XKQ A 501       6.651   6.642  25.078  1.00 26.29     0.360 C 
HETATM   37  O2  XKQ A 501       6.932   7.012  26.200  1.00 27.21    -0.239 OA
HETATM   38  H14 XKQ A 501       7.022   6.640  23.053  1.00 24.36     0.165 HD
BRANCH  36  39
HETATM   39  O1  XKQ A 501       5.686   5.768  24.792  1.00 26.63    -0.309 OA
HETATM   40  C7  XKQ A 501       4.973   5.232  25.931  1.00 27.47     0.215 C 
ENDBRANCH  36  39
ENDBRANCH  30  35
ENDBRANCH   9  30
TORSDOF 12
