5ol3_9LQ_ligand
     RDKit          3D

 55 58  0  0  0  0  0  0  0  0999 V2000
    9.7550   13.0800    7.8550 C   0  0  0  0  0  0  0  0  0  0  0  0
   10.9470   13.7420    7.6170 C   0  0  0  0  0  0  0  0  0  0  0  0
   12.0620   13.0540    7.2460 C   0  0  0  0  0  0  0  0  0  0  0  0
   12.0230   11.6460    7.0810 C   0  0  0  0  0  0  0  0  0  0  0  0
   10.8040   10.9570    7.2960 C   0  0  0  0  0  0  0  0  0  0  0  0
   10.8140    9.5470    7.1660 C   0  0  0  0  0  0  0  0  0  0  0  0
    9.6730   11.7210    7.7060 C   0  0  0  0  0  0  0  0  0  0  0  0
   13.1510    9.5500    6.6800 N   0  0  0  0  0  0  0  0  0  0  0  0
    8.3940    9.9670    9.1280 O   0  0  0  0  0  0  0  0  0  0  0  0
    4.6420   15.9670    8.6590 O   0  0  0  0  0  0  0  0  0  0  0  0
    7.5300   10.5300    6.8820 O   0  0  0  0  0  0  0  0  0  0  0  0
    8.1470   10.9360    8.1060 S   0  0  2  0  0  0  0  0  0  0  0  0
   11.9840    8.9190    6.8680 C   0  0  0  0  0  0  0  0  0  0  0  0
   13.1580   10.8700    6.7740 C   0  0  0  0  0  0  0  0  0  0  0  0
    7.1650   12.0610    8.7720 N   0  0  0  0  0  0  0  0  0  0  0  0
    6.6290   13.0940    7.8660 C   0  0  1  0  0  0  0  0  0  0  0  0
    5.1820   12.9290    7.6230 C   0  0  2  0  0  0  0  0  0  0  0  0
    4.3310   13.3170    8.7570 N   0  0  2  0  0  0  0  0  0  0  0  0
    4.6440   12.6880   10.0450 C   0  0  1  0  0  0  0  0  0  0  0  0
    5.9520   13.1100   10.7010 C   0  0  1  0  0  0  0  0  0  0  0  0
    7.1700   12.3290   10.2240 C   0  0  2  0  0  0  0  0  0  0  0  0
    2.8960   13.4690    8.4770 C   0  0  1  0  0  0  0  0  0  0  0  0
    2.6150   14.1270    7.1480 C   0  0  0  0  0  0  0  0  0  0  0  0
    2.8980   15.4890    6.9120 C   0  0  0  0  0  0  0  0  0  0  0  0
    3.6030   16.4680    7.9370 B   0  0  0  0  0  0  0  0  0  0  0  0
    3.2530   17.7780    8.0960 O   0  0  0  0  0  0  0  0  0  0  0  0
    2.6100   16.0060    5.6420 C   0  0  0  0  0  0  0  0  0  0  0  0
    2.0930   15.2090    4.6360 C   0  0  0  0  0  0  0  0  0  0  0  0
    1.8330   13.8840    4.8730 C   0  0  0  0  0  0  0  0  0  0  0  0
    2.0790   13.3440    6.1210 C   0  0  0  0  0  0  0  0  0  0  0  0
    8.9040   13.6860    8.1620 H   0  0  0  0  0  0  0  0  0  0  0  0
   10.9890   14.8240    7.7290 H   0  0  0  0  0  0  0  0  0  0  0  0
   13.0030   13.5720    7.0700 H   0  0  0  0  0  0  0  0  0  0  0  0
    9.8900    8.9860    7.3040 H   0  0  0  0  0  0  0  0  0  0  0  0
    4.9440   16.7190    9.2330 H   0  0  0  0  0  0  0  0  0  0  0  0
   12.0310    7.8350    6.7660 H   0  0  0  0  0  0  0  0  0  0  0  0
   14.1170   11.3550    6.5990 H   0  0  0  0  0  0  0  0  0  0  0  0
    6.8420   14.0700    8.3000 H   0  0  0  0  0  0  0  0  0  0  0  0
    7.1520   12.9990    6.9160 H   0  0  0  0  0  0  0  0  0  0  0  0
    4.9950   11.8870    7.3700 H   0  0  0  0  0  0  0  0  0  0  0  0
    4.8840   13.5480    6.7780 H   0  0  0  0  0  0  0  0  0  0  0  0
    3.8260   12.9110   10.7290 H   0  0  0  0  0  0  0  0  0  0  0  0
    4.6650   11.6130    9.8710 H   0  0  0  0  0  0  0  0  0  0  0  0
    6.1350   14.1560   10.4580 H   0  0  0  0  0  0  0  0  0  0  0  0
    5.8740   13.0410   11.7850 H   0  0  0  0  0  0  0  0  0  0  0  0
    8.0700   12.8980   10.4540 H   0  0  0  0  0  0  0  0  0  0  0  0
    7.2160   11.3740   10.7460 H   0  0  0  0  0  0  0  0  0  0  0  0
    2.3910   12.5050    8.5050 H   0  0  0  0  0  0  0  0  0  0  0  0
    2.4520   14.1110    9.2360 H   0  0  0  0  0  0  0  0  0  0  0  0
    2.5100   17.9210    7.4520 H   0  0  0  0  0  0  0  0  0  0  0  0
    2.7960   17.0600    5.4410 H   0  0  0  0  0  0  0  0  0  0  0  0
    1.8950   15.6410    3.6560 H   0  0  0  0  0  0  0  0  0  0  0  0
    1.4330   13.2540    4.0800 H   0  0  0  0  0  0  0  0  0  0  0  0
    1.8510   12.2950    6.3010 H   0  0  0  0  0  0  0  0  0  0  0  0
    4.6160   14.2730    8.9160 H   0  0  0  0  0  0  0  0  0  0  0  0
 25 10  1  0
 25 24  1  0
 25 26  1  0
  7  1  2  0
  7  5  1  0
  7 12  1  0
  1  2  1  0
  1 31  1  0
 20 19  1  0
 20 21  1  0
 20 44  1  1
 20 45  1  0
 19 18  1  0
 19 42  1  1
 19 43  1  0
 22 18  1  0
 22 23  1  0
 22 48  1  6
 22 49  1  0
 23 24  2  0
 23 30  1  0
 30 29  2  0
 30 54  1  0
 29 28  1  0
 29 53  1  0
 28 27  2  0
 28 52  1  0
 27 24  1  0
 27 51  1  0
 17 16  1  0
 17 18  1  0
 17 40  1  6
 17 41  1  0
  2  3  2  0
  2 32  1  0
 16 15  1  0
 16 38  1  1
 16 39  1  0
  3  4  1  0
  3 33  1  0
  4  5  2  0
  4 14  1  0
  5  6  1  0
  6 13  2  0
  6 34  1  0
 13  8  1  0
 13 36  1  0
 14  8  2  0
 14 37  1  0
 21 15  1  0
 21 46  1  6
 21 47  1  0
 50 26  1  0
 35 10  1  0
 18 55  1  1
 12 15  1  1
  9 12  2  0
 11 12  2  0
M  CHG  1  18   1
M  END
