4ie3
     RDKit          3D

 51 51  0  0  0  0  0  0  0  0999 V2000
   35.0640   88.9480   72.0690 O   0  0  0  0  0  0  0  0  0  0  0  0
   34.0030   88.6990   71.4440 C   0  0  0  0  0  0  0  0  0  0  0  0
   33.1580   89.5830   71.1310 O   0  0  0  0  0  1  0  0  0  0  0  0
   33.7260   87.2660   71.0510 C   0  0  1  0  0  0  0  0  0  0  0  0
   32.2870   87.1380   70.7650 N   0  0  0  0  0  4  0  0  0  0  0  0
   34.4860   86.8730   69.7850 C   0  0  0  0  0  0  0  0  0  0  0  0
   35.9660   86.5570   69.9690 C   0  0  0  0  0  0  0  0  0  0  0  0
   36.5890   86.0880   68.6420 C   0  0  0  0  0  0  0  0  0  0  0  0
   36.9210   87.2520   67.7050 C   0  0  0  0  0  0  0  0  0  0  0  0
   37.2650   86.7360   66.2380 B   0  0  0  0  0  4  0  0  0  0  0  0
   37.9230   87.6890   65.2630 O   0  0  0  0  0  0  0  0  0  0  0  0
   36.2690   85.8020   65.5980 O   0  0  0  0  0  0  0  0  0  0  0  0
   38.4400   85.7840   66.5260 O   0  0  0  0  0  0  0  0  0  0  0  0
   34.0990   86.3800   72.2360 C   0  0  0  0  0  0  0  0  0  0  0  0
   33.1420   86.6740   73.3840 C   0  0  0  0  0  0  0  0  0  0  0  0
   33.3170   85.7530   74.5140 N   0  0  2  0  0  4  0  0  0  0  0  0
   32.1910   85.9190   75.4550 C   0  0  0  0  0  0  0  0  0  0  0  0
   32.2960   84.8890   76.5810 C   0  0  0  0  0  0  0  0  0  0  0  0
   33.5980   85.1090   77.3370 C   0  0  1  0  0  0  0  0  0  0  0  0
   33.7580   84.0830   78.3230 O   0  0  0  0  0  0  0  0  0  0  0  0
   34.7790   85.0830   76.3630 C   0  0  0  0  0  0  0  0  0  0  0  0
   34.5880   86.0590   75.2020 C   0  0  0  0  0  0  0  0  0  0  0  0
   34.0050   85.9880   69.3680 H   0  0  0  0  0  0  0  0  0  0  0  0
   34.3950   87.6850   69.0640 H   0  0  0  0  0  0  0  0  0  0  0  0
   36.4840   87.4530   70.3110 H   0  0  0  0  0  0  0  0  0  0  0  0
   36.0760   85.7710   70.7160 H   0  0  0  0  0  0  0  0  0  0  0  0
   37.5070   85.5430   68.8610 H   0  0  0  0  0  0  0  0  0  0  0  0
   35.8910   85.4180   68.1400 H   0  0  0  0  0  0  0  0  0  0  0  0
   36.0620   87.9220   67.6530 H   0  0  0  0  0  0  0  0  0  0  0  0
   37.7770   87.7980   68.1020 H   0  0  0  0  0  0  0  0  0  0  0  0
   35.1220   86.5940   72.5470 H   0  0  0  0  0  0  0  0  0  0  0  0
   34.0160   85.3320   71.9500 H   0  0  0  0  0  0  0  0  0  0  0  0
   32.1190   86.5860   73.0170 H   0  0  0  0  0  0  0  0  0  0  0  0
   33.3070   87.6940   73.7300 H   0  0  0  0  0  0  0  0  0  0  0  0
   33.3370   84.8020   74.1750 H   0  0  0  0  0  0  0  0  0  0  0  0
   32.2200   86.9220   75.8800 H   0  0  0  0  0  0  0  0  0  0  0  0
   31.2500   85.7790   74.9220 H   0  0  0  0  0  0  0  0  0  0  0  0
   31.4540   85.0070   77.2630 H   0  0  0  0  0  0  0  0  0  0  0  0
   32.2850   83.8840   76.1580 H   0  0  0  0  0  0  0  0  0  0  0  0
   33.5640   86.0790   77.8330 H   0  0  0  0  0  0  0  0  0  0  0  0
   34.8810   84.0750   75.9610 H   0  0  0  0  0  0  0  0  0  0  0  0
   35.6900   85.3450   76.9020 H   0  0  0  0  0  0  0  0  0  0  0  0
   35.4160   85.9570   74.5000 H   0  0  0  0  0  0  0  0  0  0  0  0
   34.5580   87.0790   75.5850 H   0  0  0  0  0  0  0  0  0  0  0  0
   31.7580   87.3380   71.6020 H   0  0  0  0  0  0  0  0  0  0  0  0
   32.0870   86.1970   70.4580 H   0  0  0  0  0  0  0  0  0  0  0  0
   32.0290   87.7910   70.0390 H   0  0  0  0  0  0  0  0  0  0  0  0
   37.6500   88.5880   65.4610 H   0  0  0  0  0  0  0  0  0  0  0  0
   35.3880   86.0050   65.9200 H   0  0  0  0  0  0  0  0  0  0  0  0
   39.0140   85.7420   65.7580 H   0  0  0  0  0  0  0  0  0  0  0  0
   34.5800   84.2220   78.8000 H   0  0  0  0  0  0  0  0  0  0  0  0
 10  9  1  0
 10 11  1  0
 10 12  1  0
 10 13  1  0
  2  1  2  0
  2  3  1  0
  4  2  1  0
  4 14  1  1
 14 15  1  0
 14 31  1  0
 14 32  1  0
 15 16  1  0
 15 33  1  0
 15 34  1  0
 22 16  1  0
 22 21  1  0
 22 43  1  0
 22 44  1  0
 21 19  1  0
 21 41  1  0
 21 42  1  0
 19 18  1  0
 19 20  1  0
 19 40  1  1
 18 17  1  0
 18 38  1  0
 18 39  1  0
 17 16  1  0
 17 36  1  0
 17 37  1  0
  4  5  1  0
  4  6  1  0
  6  7  1  0
  6 23  1  0
  6 24  1  0
  7  8  1  0
  7 25  1  0
  7 26  1  0
  8  9  1  0
  8 27  1  0
  8 28  1  0
  9 29  1  0
  9 30  1  0
 50 13  1  0
 49 12  1  0
 16 35  1  6
 51 20  1  0
 48 11  1  0
  5 45  1  0
 46  5  1  0
 47  5  1  0
M  CHG  4   3  -1   5   1  10  -1  16   1
M  END
