7k4j_VV1_ligand
     RDKit          3D

 36 37  0  0  0  0  0  0  0  0999 V2000
  -23.3260   18.7660  -11.1300 N   0  0  1  0  0  0  0  0  0  0  0  0
  -23.0380   17.5410  -10.2990 C   0  0  1  0  0  0  0  0  0  0  0  0
  -22.6360   16.7710  -11.5700 C   0  0  2  0  0  0  0  0  0  0  0  0
  -23.1130   15.3020  -11.6390 C   0  0  2  0  0  0  0  0  0  0  0  0
  -24.5980   14.9830  -11.8630 C   0  0  1  0  0  0  0  0  0  0  0  0
  -24.8740   13.5090  -12.1690 C   0  0  1  0  0  0  0  0  0  0  0  0
  -19.6670   15.3320  -12.9090 O   0  0  0  0  0  0  0  0  0  0  0  0
  -20.1730   15.8620  -11.9450 C   0  0  0  0  0  0  0  0  0  0  0  0
  -19.9380   15.5200  -10.7130 O   0  0  0  0  0  0  0  0  0  0  0  0
  -21.1610   17.0650  -12.0070 C   0  0  1  0  0  0  0  0  0  0  0  0
  -23.4120   17.8720  -12.3600 C   0  0  2  0  0  0  0  0  0  0  0  0
  -22.5770   18.2440  -13.5890 C   0  0  1  0  0  0  0  0  0  0  0  0
  -21.2250   17.6160  -13.3990 N   0  0  1  0  0  0  0  0  0  0  0  0
  -26.4090   13.2680  -12.4310 B   0  0  2  0  0  0  0  0  0  0  0  0
  -26.8360   13.9580  -13.6890 O   0  0  0  0  0  0  0  0  0  0  0  0
  -27.3560   13.7400  -11.4230 O   0  0  0  0  0  0  0  0  0  0  0  0
  -26.6960   11.7790  -12.5740 O   0  0  0  0  0  0  0  0  0  0  0  0
  -24.1890   19.2350  -10.8940 H   0  0  0  0  0  0  0  0  0  0  0  0
  -22.5390   19.3990  -11.1670 H   0  0  0  0  0  0  0  0  0  0  0  0
  -22.2270   17.6700   -9.5820 H   0  0  0  0  0  0  0  0  0  0  0  0
  -23.9380   17.1350   -9.8360 H   0  0  0  0  0  0  0  0  0  0  0  0
  -22.8310   14.8350  -10.6950 H   0  0  0  0  0  0  0  0  0  0  0  0
  -22.5480   14.8100  -12.4310 H   0  0  0  0  0  0  0  0  0  0  0  0
  -25.1480   15.2550  -10.9620 H   0  0  0  0  0  0  0  0  0  0  0  0
  -24.9640   15.5870  -12.6920 H   0  0  0  0  0  0  0  0  0  0  0  0
  -24.3110   13.2170  -13.0560 H   0  0  0  0  0  0  0  0  0  0  0  0
  -24.5540   12.9010  -11.3230 H   0  0  0  0  0  0  0  0  0  0  0  0
  -20.7720   17.8490  -11.3580 H   0  0  0  0  0  0  0  0  0  0  0  0
  -24.4330   17.5820  -12.6080 H   0  0  0  0  0  0  0  0  0  0  0  0
  -23.0470   17.8580  -14.4930 H   0  0  0  0  0  0  0  0  0  0  0  0
  -22.4770   19.3280  -13.6570 H   0  0  0  0  0  0  0  0  0  0  0  0
  -20.5040   18.3110  -13.5270 H   0  0  0  0  0  0  0  0  0  0  0  0
  -21.1000   16.8690  -14.0680 H   0  0  0  0  0  0  0  0  0  0  0  0
  -26.0700   14.3420  -14.1200 H   0  0  0  0  0  0  0  0  0  0  0  0
  -27.2480   11.4870  -11.8450 H   0  0  0  0  0  0  0  0  0  0  0  0
  -27.7040   12.9910  -10.9340 H   0  0  0  0  0  0  0  0  0  0  0  0
 14  6  1  0
 14 15  1  6
 14 16  1  0
 14 17  1  0
  8  7  1  0
  8  9  2  0
  8 10  1  0
  3 10  1  6
 10 13  1  0
 10 28  1  1
 12 11  1  0
 12 13  1  0
 12 30  1  6
 12 31  1  0
 11  1  1  0
 11  3  1  0
 11 29  1  6
  2  1  1  0
  2  3  1  0
  2 20  1  1
  2 21  1  0
  3  4  1  0
  4  5  1  0
  4 23  1  6
  4 22  1  0
  5  6  1  0
  5 24  1  1
  5 25  1  0
  6 26  1  6
  6 27  1  0
 13 32  1  1
 33 13  1  0
  1 18  1  1
 19  1  1  0
 35 17  1  0
 36 16  1  0
 34 15  1  0
M  CHG  4   1   1   7  -1  13   1  14  -1
M  END
