REMARK  9 active torsions:
REMARK  status: ('A' for Active; 'I' for Inactive)
REMARK    1  A    between atoms: O1_2  and  C2_3 
REMARK    2  A    between atoms: C4_5  and  N1_6 
REMARK    3  A    between atoms: N1_6  and  C5_7 
REMARK    4  A    between atoms: C10_13  and  O2_14 
REMARK    5  A    between atoms: O2_14  and  C11_15 
REMARK    6  A    between atoms: C11_15  and  C12_16 
REMARK    7  A    between atoms: C12_16  and  C13_17 
REMARK    8  A    between atoms: C13_17  and  N3_18 
REMARK    9  A    between atoms: C19_25  and  O3_26 
ROOT
HETATM    1  C5  UNL     1      -3.288  -2.077  -0.368  1.00  0.00     0.068 A 
HETATM    2  C6  UNL     1      -3.179  -2.891   0.774  1.00  0.00     0.089 A 
HETATM    3  C7  UNL     1      -1.924  -3.105   1.350  1.00  0.00     0.142 A 
HETATM    4  N2  UNL     1      -0.815  -2.538   0.811  1.00  0.00    -0.259 NA
HETATM    5  C8  UNL     1      -0.878  -1.740  -0.288  1.00  0.00     0.071 A 
HETATM    6  C9  UNL     1       0.298  -1.181  -0.801  1.00  0.00     0.072 A 
HETATM    7  C10 UNL     1       0.251  -0.314  -1.910  1.00  0.00     0.104 A 
HETATM    8  C19 UNL     1      -0.983  -0.043  -2.522  1.00  0.00     0.102 A 
HETATM    9  C21 UNL     1      -2.159  -0.639  -2.031  1.00  0.00     0.055 A 
HETATM   10  C22 UNL     1      -2.122  -1.476  -0.902  1.00  0.00     0.024 A 
HETATM   11  C23 UNL     1      -4.347  -3.479   1.378  1.00  0.00     0.103 C 
HETATM   12  N5  UNL     1      -5.285  -3.950   1.866  1.00  0.00    -0.191 NA
ENDROOT
BRANCH   1  13
HETATM   13  N1  UNL     1      -4.572  -1.904  -0.997  1.00  0.00    -0.353 N 
HETATM   14  H5  UNL     1      -5.025  -2.760  -1.383  1.00  0.00     0.166 HD
BRANCH  13  15
HETATM   15  C4  UNL     1      -5.306  -0.664  -0.982  1.00  0.00     0.057 A 
HETATM   16  C3  UNL     1      -4.985   0.347  -0.060  1.00  0.00     0.069 A 
HETATM   17  C2  UNL     1      -5.721   1.547  -0.024  1.00  0.00     0.092 A 
HETATM   18  C26 UNL     1      -6.783   1.728  -0.919  1.00  0.00     0.069 A 
HETATM   19  C25 UNL     1      -7.110   0.725  -1.836  1.00  0.00     0.052 A 
HETATM   20 CL2  UNL     1      -7.723   3.215  -0.906  1.00  0.00    -0.081 Cl
HETATM   21  C24 UNL     1      -6.382  -0.468  -1.872  1.00  0.00     0.062 A 
HETATM   22 CL1  UNL     1      -6.828  -1.677  -3.075  1.00  0.00    -0.082 Cl
BRANCH  17  23
HETATM   23  O1  UNL     1      -5.433   2.575   0.887  1.00  0.00    -0.354 OA
HETATM   24  C1  UNL     1      -4.382   2.532   1.850  1.00  0.00     0.210 C 
ENDBRANCH  17  23
ENDBRANCH  13  15
ENDBRANCH   1  13
BRANCH   8  25
HETATM   25  O3  UNL     1      -1.000   0.819  -3.630  1.00  0.00    -0.353 OA
HETATM   26  C20 UNL     1      -2.162   1.146  -4.386  1.00  0.00     0.210 C 
ENDBRANCH   8  25
BRANCH   7  27
HETATM   27  O2  UNL     1       1.399   0.296  -2.441  1.00  0.00    -0.348 OA
BRANCH  27  28
HETATM   28  C11 UNL     1       2.751  -0.091  -2.195  1.00  0.00     0.177 C 
BRANCH  28  29
HETATM   29  C12 UNL     1       3.444   0.857  -1.196  1.00  0.00     0.057 C 
BRANCH  29  30
HETATM   30  C13 UNL     1       3.679   0.195   0.172  1.00  0.00     0.274 C 
BRANCH  30  31
HETATM   31  N3  UNL     1       4.378   1.112   1.102  1.00  0.00     0.091 N 
HETATM   32  C14 UNL     1       5.847   1.133   0.924  1.00  0.00     0.302 C 
HETATM   33  C15 UNL     1       6.551  -0.119   1.490  1.00  0.00     0.302 C 
HETATM   34  N4  UNL     1       6.149  -0.439   2.875  1.00  0.00     0.087 N 
HETATM   35  C16 UNL     1       6.820   0.420   3.866  1.00  0.00     0.310 C 
HETATM   36  C17 UNL     1       4.685  -0.451   3.033  1.00  0.00     0.302 C 
HETATM   37  C18 UNL     1       4.032   0.843   2.516  1.00  0.00     0.302 C 
ENDBRANCH  30  31
ENDBRANCH  29  30
ENDBRANCH  28  29
ENDBRANCH  27  28
ENDBRANCH   7  27
TORSDOF 9
