7nov_UK2_ligand
     RDKit          3D

 21 21  0  0  0  0  0  0  0  0999 V2000
   -7.7380  -20.2500  -47.9080 B   0  0  0  0  0  0  0  0  0  0  0  0
   -7.5720  -18.8360  -47.2230 C   0  0  0  0  0  0  0  0  0  0  0  0
   -8.6940  -18.1000  -46.8630 C   0  0  0  0  0  0  0  0  0  0  0  0
   -8.5600  -16.8580  -46.2510 C   0  0  0  0  0  0  0  0  0  0  0  0
   -7.2870  -16.3550  -45.9930 C   0  0  0  0  0  0  0  0  0  0  0  0
   -7.1700  -14.9850  -45.3170 C   0  0  1  0  0  0  0  0  0  0  0  0
   -6.1690  -17.1050  -46.3530 C   0  0  0  0  0  0  0  0  0  0  0  0
   -6.3100  -18.3470  -46.9630 C   0  0  0  0  0  0  0  0  0  0  0  0
   -4.8050  -16.6750  -46.1270 N   0  0  0  0  0  0  0  0  0  0  0  0
   -8.9710  -20.6280  -48.2860 O   0  0  0  0  0  0  0  0  0  0  0  0
   -3.8790  -17.6450  -45.7420 O   0  0  0  0  0  0  0  0  0  0  0  0
   -4.4410  -15.5610  -46.2970 O   0  0  0  0  0  0  0  0  0  0  0  0
   -6.6570  -20.9040  -48.3800 O   0  0  0  0  0  0  0  0  0  0  0  0
   -9.6790  -18.4960  -47.0600 H   0  0  0  0  0  0  0  0  0  0  0  0
   -9.4360  -16.2880  -45.9780 H   0  0  0  0  0  0  0  0  0  0  0  0
   -5.4370  -18.9240  -47.2310 H   0  0  0  0  0  0  0  0  0  0  0  0
   -8.9580  -21.5530  -48.5430 H   0  0  0  0  0  0  0  0  0  0  0  0
   -6.9080  -21.7940  -48.6380 H   0  0  0  0  0  0  0  0  0  0  0  0
   -6.6240  -15.0880  -44.3790 H   0  0  0  0  0  0  0  0  0  0  0  0
   -6.6350  -14.3000  -45.9750 H   0  0  0  0  0  0  0  0  0  0  0  0
   -8.1670  -14.5920  -45.1160 H   0  0  0  0  0  0  0  0  0  0  0  0
  1  2  1  0
  1 10  1  0
  1 13  1  0
  2  3  2  0
  2  8  1  0
  3  4  1  0
  3 14  1  0
  4  5  2  0
  4 15  1  0
  5  6  1  0
  5  7  1  0
  6 19  1  1
  6 20  1  0
  6 21  1  0
  7  8  2  0
  7  9  1  0
  8 16  1  0
 17 10  1  0
 18 13  1  0
  9 11  2  0
  9 12  1  0
M  CHG  2   9   1  12  -1
M  END
