7klm_0IZ_ligand
     RDKit          3D

 51 51  0  0  0  0  0  0  0  0999 V2000
  -23.1890   19.1850  -11.5730 N   0  0  0  0  0  0  0  0  0  0  0  0
  -24.0790   19.4220  -10.6000 C   0  0  0  0  0  0  0  0  0  0  0  0
  -23.2380   18.0100  -12.4390 C   0  0  1  0  0  0  0  0  0  0  0  0
  -22.4810   18.2250  -13.7480 C   0  0  1  0  0  0  0  0  0  0  0  0
  -21.0990   17.0760  -12.1020 C   0  0  1  0  0  0  0  0  0  0  0  0
  -20.0790   15.9060  -11.9120 C   0  0  0  0  0  0  0  0  0  0  0  0
  -23.0950   15.4200  -12.3230 C   0  0  1  0  0  0  0  0  0  0  0  0
  -19.3600   15.4720  -12.7970 O   0  0  0  0  0  0  0  0  0  0  0  0
  -20.0260   15.5050  -10.6670 O   0  0  0  0  0  0  0  0  0  0  0  0
  -21.2040   17.4510  -13.5520 N   0  0  1  0  0  0  0  0  0  0  0  0
  -22.5880   16.7710  -11.7880 C   0  0  2  0  0  0  0  0  0  0  0  0
  -24.5200   14.9930  -11.9530 C   0  0  2  0  0  0  0  0  0  0  0  0
  -24.7940   13.5180  -12.2510 C   0  0  1  0  0  0  0  0  0  0  0  0
  -26.3230   13.2040  -12.4240 B   0  0  2  0  0  0  0  0  0  0  0  0
  -26.4990   11.7660  -12.6480 O   0  0  0  0  0  0  0  0  0  0  0  0
  -26.9660   13.8380  -13.6130 O   0  0  0  0  0  0  0  0  0  0  0  0
  -27.1640   13.5360  -11.2480 O   0  0  0  0  0  0  0  0  0  0  0  0
  -25.2390   19.0160  -10.6300 O   0  0  0  0  0  0  0  0  0  0  0  0
  -23.5370   20.2040   -9.3030 C   0  0  1  0  0  0  0  0  0  0  0  0
  -22.2010   19.7530   -8.8920 N   0  0  1  0  0  0  0  0  0  0  0  0
  -23.6000   21.7770   -9.4610 C   0  0  2  0  0  0  0  0  0  0  0  0
  -22.9650   22.4830   -8.2600 C   0  0  1  0  0  0  0  0  0  0  0  0
  -25.0410   22.2500   -9.6310 C   0  0  2  0  0  0  0  0  0  0  0  0
  -22.4440   19.8530  -11.7150 H   0  0  0  0  0  0  0  0  0  0  0  0
  -24.2800   17.7830  -12.6680 H   0  0  0  0  0  0  0  0  0  0  0  0
  -23.0470   17.8350  -14.5940 H   0  0  0  0  0  0  0  0  0  0  0  0
  -22.2640   19.2840  -13.8920 H   0  0  0  0  0  0  0  0  0  0  0  0
  -20.7740   17.9410  -11.5240 H   0  0  0  0  0  0  0  0  0  0  0  0
  -23.0410   15.4600  -13.4100 H   0  0  0  0  0  0  0  0  0  0  0  0
  -22.4110   14.6430  -11.9790 H   0  0  0  0  0  0  0  0  0  0  0  0
  -21.2210   16.6170  -14.1200 H   0  0  0  0  0  0  0  0  0  0  0  0
  -20.4150   18.0250  -13.8130 H   0  0  0  0  0  0  0  0  0  0  0  0
  -22.7420   16.8110  -10.7090 H   0  0  0  0  0  0  0  0  0  0  0  0
  -25.2230   15.6000  -12.5220 H   0  0  0  0  0  0  0  0  0  0  0  0
  -24.6770   15.1740  -10.8900 H   0  0  0  0  0  0  0  0  0  0  0  0
  -24.2770   13.2460  -13.1710 H   0  0  0  0  0  0  0  0  0  0  0  0
  -24.4010   12.9130  -11.4340 H   0  0  0  0  0  0  0  0  0  0  0  0
  -24.2130   19.9500   -8.4860 H   0  0  0  0  0  0  0  0  0  0  0  0
  -23.0410   22.0530  -10.3550 H   0  0  0  0  0  0  0  0  0  0  0  0
  -25.6430   11.3570  -12.7930 H   0  0  0  0  0  0  0  0  0  0  0  0
  -26.2970   14.2830  -14.1390 H   0  0  0  0  0  0  0  0  0  0  0  0
  -27.6190   12.7460  -10.9460 H   0  0  0  0  0  0  0  0  0  0  0  0
  -22.0690   18.7920   -9.1730 H   0  0  0  0  0  0  0  0  0  0  0  0
  -21.5000   20.3310   -9.3320 H   0  0  0  0  0  0  0  0  0  0  0  0
  -22.1150   19.8250   -7.8880 H   0  0  0  0  0  0  0  0  0  0  0  0
  -21.9350   22.1430   -8.1410 H   0  0  0  0  0  0  0  0  0  0  0  0
  -22.9750   23.5600   -8.4260 H   0  0  0  0  0  0  0  0  0  0  0  0
  -23.5320   22.2480   -7.3590 H   0  0  0  0  0  0  0  0  0  0  0  0
  -25.3780   22.7280   -8.7120 H   0  0  0  0  0  0  0  0  0  0  0  0
  -25.6810   21.3950   -9.8520 H   0  0  0  0  0  0  0  0  0  0  0  0
  -25.0950   22.9640  -10.4530 H   0  0  0  0  0  0  0  0  0  0  0  0
 14 13  1  0
 14 15  1  6
 14 16  1  0
 14 17  1  0
 23 21  1  0
 23 49  1  1
 23 50  1  0
 23 51  1  0
 21 19  1  0
 21 22  1  0
 21 39  1  6
  7 11  1  0
  7 12  1  0
  7 29  1  6
  7 30  1  0
 12 13  1  0
 12 34  1  6
 12 35  1  0
 13 36  1  6
 13 37  1  0
 22 46  1  1
 22 47  1  0
 22 48  1  0
 19  2  1  0
 19 20  1  0
 19 38  1  1
  2  1  1  0
  2 18  2  0
  3  1  1  0
  3  4  1  0
  3 11  1  0
  3 25  1  6
  4 10  1  0
  4 26  1  6
  4 27  1  0
  5  6  1  0
  5 10  1  0
  5 11  1  0
  5 28  1  1
  6  8  2  0
  6  9  1  0
 11 33  1  1
 41 16  1  0
 24  1  1  0
 20 43  1  1
 10 31  1  6
 32 10  1  0
 44 20  1  0
 45 20  1  0
 42 17  1  0
 40 15  1  0
M  CHG  4   9  -1  10   1  14  -1  20   1
M  END
